Network_13R-103/scenario_47/case.raw
0,100.0,33,0,0,60.0
GRID OPTIMIZATION COMPETITION
INPUT DATA FILES ARE RAW ROP INL CON
1,'            ',115.0,1,1,1,1,1.0491537,3.49079,1.1,0.9,1.1,0.9
2,'            ',115.0,1,1,1,1,1.0491544,2.2713783,1.1,0.9,1.1,0.9
3,'            ',115.0,1,1,1,1,1.0428876,10.58544,1.1,0.9,1.1,0.9
4,'            ',115.0,1,1,1,1,1.0442113,-0.054046354,1.1,0.9,1.1,0.9
5,'            ',115.0,1,1,1,1,1.0442337,-0.051328721,1.1,0.9,1.1,0.9
6,'            ',115.0,1,1,1,1,1.044398,15.09549,1.1,0.9,1.1,0.9
7,'            ',115.0,1,1,1,1,1.0458336,15.111708,1.1,0.9,1.1,0.9
8,'            ',115.0,1,1,1,1,1.0544037,-5.4292397,1.1,0.9,1.1,0.9
9,'            ',115.0,1,1,1,1,1.0533839,-5.1161637,1.1,0.9,1.1,0.9
10,'            ',115.0,1,1,1,1,1.0463823,3.9868786,1.1,0.9,1.1,0.9
11,'            ',115.0,1,1,1,1,1.0515854,6.9394963,1.1,0.9,1.1,0.9
12,'            ',230.0,1,1,1,1,1.0454767,8.9923346,1.1,0.9,1.1,0.9
13,'            ',115.0,1,1,1,1,1.0534417,8.2634271,1.1,0.9,1.1,0.9
14,'            ',230.0,1,1,1,1,1.0454121,8.9860948,1.1,0.9,1.1,0.9
15,'            ',230.0,1,1,1,1,1.0456845,9.0104699,1.1,0.9,1.1,0.9
16,'            ',230.0,1,1,1,1,1.0611401,-5.1549734,1.1,0.9,1.1,0.9
17,'            ',115.0,1,1,1,1,1.0624683,-5.6395061,1.1,0.9,1.1,0.9
18,'            ',230.0,1,1,1,1,1.0610737,-5.1647256,1.1,0.9,1.1,0.9
19,'            ',230.0,1,1,1,1,1.0611974,-5.1334588,1.1,0.9,1.1,0.9
20,'            ',230.0,1,1,1,1,1.050564,-2.909861,1.1,0.9,1.1,0.9
21,'            ',115.0,1,1,1,1,1.0618053,-3.9286304,1.1,0.9,1.1,0.9
22,'            ',230.0,1,1,1,1,1.0510725,-2.8857278,1.1,0.9,1.1,0.9
23,'            ',230.0,1,1,1,1,1.050564,-2.909861,1.1,0.9,1.1,0.9
24,'            ',115.0,1,1,1,1,1.0415757,10.635303,1.1,0.9,1.1,0.9
25,'            ',115.0,1,1,1,1,1.0431526,10.43925,1.1,0.9,1.1,0.9
26,'            ',115.0,1,1,1,1,1.0464178,17.390122,1.1,0.9,1.1,0.9
27,'            ',500.0,1,1,1,1,1.0425,8.2650517,1.1,0.9,1.1,0.9
28,'            ',230.0,1,1,1,1,1.0476514,10.29709,1.1,0.9,1.1,0.9
29,'            ',115.0,1,1,1,1,1.0509307,11.016422,1.1,0.9,1.1,0.9
30,'            ',500.0,1,1,1,1,1.0422602,8.2454009,1.1,0.9,1.1,0.9
31,'            ',230.0,1,1,1,1,1.0475716,10.598928,1.1,0.9,1.1,0.9
32,'            ',115.0,1,1,1,1,1.0416193,10.79435,1.1,0.9,1.1,0.9
33,'            ',115.0,1,1,1,1,1.0414978,10.778736,1.1,0.9,1.1,0.9
34,'            ',115.0,1,1,1,1,1.0489637,-6.0731689,1.1,0.9,1.1,0.9
35,'            ',115.0,1,1,1,1,1.0544476,-2.4918224,1.1,0.9,1.1,0.9
36,'            ',115.0,1,1,1,1,1.0543947,-2.4972801,1.1,0.9,1.1,0.9
37,'            ',230.0,1,1,1,1,1.0507027,-0.9848426,1.1,0.9,1.1,0.9
38,'            ',115.0,1,1,1,1,1.0616651,-2.3328555,1.1,0.9,1.1,0.9
39,'            ',230.0,1,1,1,1,1.0505342,-0.99621926,1.1,0.9,1.1,0.9
40,'            ',115.0,1,1,1,1,1.0474953,9.7121329,1.1,0.9,1.1,0.9
41,'            ',115.0,1,1,1,1,1.0419861,10.830519,1.1,0.9,1.1,0.9
42,'            ',115.0,1,1,1,1,1.0470995,10.006549,1.1,0.9,1.1,0.9
43,'            ',115.0,1,1,1,1,1.0428166,11.001247,1.1,0.9,1.1,0.9
44,'            ',115.0,1,1,1,1,1.0477358,10.992281,1.1,0.9,1.1,0.9
45,'            ',115.0,1,1,1,1,1.0457378,11.112115,1.1,0.9,1.1,0.9
46,'            ',115.0,1,1,1,1,1.0549409,-4.5464733,1.1,0.9,1.1,0.9
47,'            ',115.0,1,1,1,1,1.0355,-1.0894976,1.1,0.9,1.1,0.9
48,'            ',115.0,1,1,1,1,1.0349342,-0.56269738,1.1,0.9,1.1,0.9
49,'            ',115.0,1,1,1,1,1.037046,15.418903,1.1,0.9,1.1,0.9
50,'            ',115.0,1,1,1,1,1.0371498,15.418629,1.1,0.9,1.1,0.9
51,'            ',115.0,1,1,1,1,1.052241,9.2207088,1.1,0.9,1.1,0.9
52,'            ',115.0,1,1,1,1,1.0552832,9.3363511,1.1,0.9,1.1,0.9
53,'            ',115.0,1,1,1,1,1.0553847,9.3466433,1.1,0.9,1.1,0.9
54,'            ',115.0,1,1,1,1,1.0509929,9.3287793,1.1,0.9,1.1,0.9
55,'            ',115.0,1,1,1,1,1.0509174,9.3182758,1.1,0.9,1.1,0.9
56,'            ',115.0,1,1,1,1,1.0528332,-5.9026319,1.1,0.9,1.1,0.9
57,'            ',115.0,1,1,1,1,1.0528003,-5.9070364,1.1,0.9,1.1,0.9
58,'            ',115.0,1,1,1,1,1.0541202,9.3368908,1.1,0.9,1.1,0.9
59,'            ',115.0,1,1,1,1,1.0558533,9.3439355,1.1,0.9,1.1,0.9
60,'            ',115.0,1,1,1,1,1.0521022,9.8026829,1.1,0.9,1.1,0.9
61,'            ',115.0,1,1,1,1,1.052071,9.7980422,1.1,0.9,1.1,0.9
62,'            ',115.0,1,1,1,1,1.0418158,-2.3475974,1.1,0.9,1.1,0.9
63,'            ',230.0,1,1,1,1,1.0375946,10.517936,1.1,0.9,1.1,0.9
64,'            ',115.0,1,1,1,1,1.0602277,9.6043975,1.1,0.9,1.1,0.9
65,'            ',230.0,1,1,1,1,1.0385887,10.552544,1.1,0.9,1.1,0.9
66,'            ',230.0,1,1,1,1,1.0374078,10.495471,1.1,0.9,1.1,0.9
67,'            ',115.0,1,1,1,1,1.0549559,9.9223878,1.1,0.9,1.1,0.9
68,'            ',115.0,1,1,1,1,1.0583867,-7.383179,1.1,0.9,1.1,0.9
69,'            ',115.0,1,1,1,1,1.0583295,-7.3892646,1.1,0.9,1.1,0.9
70,'            ',115.0,1,1,1,1,1.0592335,-6.9935475,1.1,0.9,1.1,0.9
71,'            ',115.0,1,1,1,1,1.0368993,2.1799946,1.1,0.9,1.1,0.9
72,'            ',230.0,1,1,1,1,1.0386551,4.0371805,1.1,0.9,1.1,0.9
73,'            ',115.0,1,1,1,1,1.0399347,3.5896522,1.1,0.9,1.1,0.9
74,'            ',230.0,1,1,1,1,1.0386163,4.0288551,1.1,0.9,1.1,0.9
75,'            ',230.0,1,1,1,1,1.0391698,4.07175,1.1,0.9,1.1,0.9
76,'            ',115.0,1,1,1,1,1.0520498,9.5196511,1.1,0.9,1.1,0.9
77,'            ',115.0,1,1,1,1,1.0496961,9.9219098,1.1,0.9,1.1,0.9
78,'            ',115.0,1,1,1,1,1.0571565,-8.8437969,1.1,0.9,1.1,0.9
79,'            ',230.0,1,1,1,1,1.0405731,-2.0544174,1.1,0.9,1.1,0.9
80,'            ',115.0,1,1,1,1,1.0553298,-2.8191312,1.1,0.9,1.1,0.9
81,'            ',230.0,1,1,1,1,1.041401,-2.0100473,1.1,0.9,1.1,0.9
82,'            ',230.0,1,1,1,1,1.0403517,-2.0903912,1.1,0.9,1.1,0.9
83,'            ',115.0,1,1,1,1,1.0430913,-2.953095,1.1,0.9,1.1,0.9
84,'            ',115.0,1,1,1,1,1.0428925,-2.9693743,1.1,0.9,1.1,0.9
85,'            ',115.0,1,1,1,1,1.0432696,-2.9364177,1.1,0.9,1.1,0.9
86,'            ',115.0,1,1,1,1,1.045015,15.468324,1.1,0.9,1.1,0.9
87,'            ',115.0,1,1,1,1,1.0406974,-2.9128197,1.1,0.9,1.1,0.9
88,'            ',115.0,1,1,1,1,1.0403729,-2.9278773,1.1,0.9,1.1,0.9
89,'            ',115.0,1,1,1,1,1.0404954,-3.0129489,1.1,0.9,1.1,0.9
90,'            ',115.0,1,1,1,1,1.0403528,-3.0247004,1.1,0.9,1.1,0.9
91,'            ',500.0,1,1,1,1,1.0456234,-1.2840865,1.1,0.9,1.1,0.9
92,'            ',230.0,1,1,1,1,1.0488486,-1.4541385,1.1,0.9,1.1,0.9
93,'            ',115.0,1,1,1,1,1.0523465,-2.2922043,1.1,0.9,1.1,0.9
94,'            ',500.0,1,1,1,1,1.0453877,-1.3080917,1.1,0.9,1.1,0.9
95,'            ',500.0,1,1,1,1,1.0481088,-1.2616467,1.1,0.9,1.1,0.9
96,'            ',115.0,1,1,1,1,1.0545387,-6.2152331,1.1,0.9,1.1,0.9
97,'            ',115.0,1,1,1,1,1.0563636,-7.5781176,1.1,0.9,1.1,0.9
98,'            ',115.0,1,1,1,1,1.0499254,-8.2482629,1.1,0.9,1.1,0.9
99,'            ',115.0,1,1,1,1,1.0546142,-7.5986131,1.1,0.9,1.1,0.9
100,'            ',115.0,1,1,1,1,1.054549,-7.6060871,1.1,0.9,1.1,0.9
101,'            ',115.0,1,1,1,1,1.0507092,-3.1366394,1.1,0.9,1.1,0.9
102,'            ',115.0,1,1,1,1,1.0520688,-3.1170714,1.1,0.9,1.1,0.9
103,'            ',115.0,1,1,1,1,1.0519983,-3.1285696,1.1,0.9,1.1,0.9
104,'            ',115.0,1,1,1,1,1.0565848,-5.9978331,1.1,0.9,1.1,0.9
105,'            ',115.0,1,1,1,1,1.0548071,-7.0473614,1.1,0.9,1.1,0.9
106,'            ',115.0,1,1,1,1,1.054447,-7.0684197,1.1,0.9,1.1,0.9
107,'            ',230.0,1,1,1,1,1.0358384,-5.5646121,1.1,0.9,1.1,0.9
108,'            ',115.0,1,1,1,1,1.0585567,-6.6569573,1.1,0.9,1.1,0.9
109,'            ',230.0,1,1,1,1,1.0356529,-5.5929053,1.1,0.9,1.1,0.9
110,'            ',230.0,1,1,1,1,1.0368989,-5.5163788,1.1,0.9,1.1,0.9
111,'            ',115.0,1,1,1,1,1.055842,-6.8197699,1.1,0.9,1.1,0.9
112,'            ',115.0,1,1,1,1,1.055732,-6.8285483,1.1,0.9,1.1,0.9
113,'            ',115.0,1,1,1,1,1.0524554,-6.6596868,1.1,0.9,1.1,0.9
114,'            ',115.0,1,1,1,1,1.0414715,-2.8418515,1.1,0.9,1.1,0.9
115,'            ',230.0,1,1,1,1,1.0478798,-1.3144895,1.1,0.9,1.1,0.9
116,'            ',115.0,1,1,1,1,1.0553169,-2.6517506,1.1,0.9,1.1,0.9
117,'            ',230.0,1,1,1,1,1.0482028,-1.292596,1.1,0.9,1.1,0.9
118,'            ',230.0,1,1,1,1,1.0478798,-1.3144895,1.1,0.9,1.1,0.9
119,'            ',115.0,1,1,1,1,1.0374251,-2.8923786,1.1,0.9,1.1,0.9
120,'            ',115.0,1,1,1,1,1.035392,-2.3971065,1.1,0.9,1.1,0.9
121,'            ',115.0,1,1,1,1,1.0352532,-2.4085785,1.1,0.9,1.1,0.9
122,'            ',115.0,1,1,1,1,1.053044,11.700692,1.1,0.9,1.1,0.9
123,'            ',115.0,1,1,1,1,1.0411856,-0.40671488,1.1,0.9,1.1,0.9
124,'            ',115.0,1,1,1,1,1.0597423,-7.3189535,1.1,0.9,1.1,0.9
125,'            ',115.0,1,1,1,1,1.0490655,-6.8197779,1.1,0.9,1.1,0.9
126,'            ',115.0,1,1,1,1,1.0492943,-3.3084425,1.1,0.9,1.1,0.9
127,'            ',115.0,1,1,1,1,1.0506162,-3.6194772,1.1,0.9,1.1,0.9
128,'            ',115.0,1,1,1,1,1.0506481,-3.6141855,1.1,0.9,1.1,0.9
129,'            ',115.0,1,1,1,1,1.0549721,-7.8086224,1.1,0.9,1.1,0.9
130,'            ',230.0,1,1,1,1,1.0432348,-6.0714905,1.1,0.9,1.1,0.9
131,'            ',115.0,1,1,1,1,1.0628406,-7.2834078,1.1,0.9,1.1,0.9
132,'            ',230.0,1,1,1,1,1.0440586,-6.0578691,1.1,0.9,1.1,0.9
133,'            ',230.0,1,1,1,1,1.0331522,-8.6784919,1.1,0.9,1.1,0.9
134,'            ',115.0,1,1,1,1,1.0601964,-7.7269205,1.1,0.9,1.1,0.9
135,'            ',230.0,1,1,1,1,1.0330456,-8.6918724,1.1,0.9,1.1,0.9
136,'            ',115.0,1,1,1,1,1.0559257,-7.2262827,1.1,0.9,1.1,0.9
137,'            ',115.0,1,1,1,1,1.0532518,-7.5290994,1.1,0.9,1.1,0.9
138,'            ',115.0,1,1,1,1,1.0533272,-7.5223983,1.1,0.9,1.1,0.9
139,'            ',115.0,1,1,1,1,1.051218,-8.5250513,1.1,0.9,1.1,0.9
140,'            ',115.0,1,1,1,1,1.0561584,-6.9475117,1.1,0.9,1.1,0.9
141,'            ',115.0,1,1,1,1,1.0485689,-2.2126024,1.1,0.9,1.1,0.9
142,'            ',115.0,1,1,1,1,1.0487367,14.693269,1.1,0.9,1.1,0.9
143,'            ',115.0,1,1,1,1,1.0444741,13.570388,1.1,0.9,1.1,0.9
144,'            ',115.0,1,1,1,1,1.0421251,12.020261,1.1,0.9,1.1,0.9
145,'            ',115.0,1,1,1,1,1.0420872,12.013453,1.1,0.9,1.1,0.9
146,'            ',115.0,1,1,1,1,1.0421637,12.027528,1.1,0.9,1.1,0.9
147,'            ',115.0,1,1,1,1,1.052799,-4.4310889,1.1,0.9,1.1,0.9
148,'            ',115.0,1,1,1,1,1.062646,-6.9316041,1.1,0.9,1.1,0.9
149,'            ',115.0,1,1,1,1,1.0627431,-6.9239064,1.1,0.9,1.1,0.9
150,'            ',115.0,1,1,1,1,1.0587987,-7.4564221,1.1,0.9,1.1,0.9
151,'            ',115.0,1,1,1,1,1.0526634,-7.6575777,1.1,0.9,1.1,0.9
152,'            ',115.0,1,1,1,1,1.044591,0.71968221,1.1,0.9,1.1,0.9
153,'            ',115.0,1,1,1,1,1.0236154,5.8901087,1.1,0.9,1.1,0.9
154,'            ',115.0,1,1,1,1,1.0545138,-5.2041725,1.1,0.9,1.1,0.9
155,'            ',115.0,1,1,1,1,1.0484799,-9.8567832,1.1,0.9,1.1,0.9
156,'            ',115.0,1,1,1,1,1.0485218,-9.853405,1.1,0.9,1.1,0.9
157,'            ',115.0,1,1,1,1,1.0598497,-7.8830725,1.1,0.9,1.1,0.9
158,'            ',115.0,1,1,1,1,1.0537287,-2.3580644,1.1,0.9,1.1,0.9
159,'            ',115.0,1,1,1,1,1.0590617,-7.1555618,1.1,0.9,1.1,0.9
160,'            ',230.0,1,1,1,1,1.0520929,-7.4826531,1.1,0.9,1.1,0.9
161,'            ',115.0,1,1,1,1,1.0582,-7.4545409,1.1,0.9,1.1,0.9
162,'            ',230.0,1,1,1,1,1.0519875,-7.4938427,1.1,0.9,1.1,0.9
163,'            ',230.0,1,1,1,1,1.0522076,-7.4740002,1.1,0.9,1.1,0.9
164,'            ',115.0,1,1,1,1,1.0579372,-7.4411296,1.1,0.9,1.1,0.9
165,'            ',115.0,1,1,1,1,1.0158629,-13.487168,1.1,0.9,1.1,0.9
166,'            ',115.0,1,1,1,1,1.015927,-13.478039,1.1,0.9,1.1,0.9
167,'            ',115.0,1,1,1,1,1.0158629,-13.487168,1.1,0.9,1.1,0.9
168,'            ',115.0,1,1,1,1,1.016989,-11.900732,1.1,0.9,1.1,0.9
169,'            ',115.0,1,1,1,1,1.0191632,-14.891332,1.1,0.9,1.1,0.9
170,'            ',115.0,1,1,1,1,1.0166103,-14.517518,1.1,0.9,1.1,0.9
171,'            ',115.0,1,1,1,1,1.016522,-14.526339,1.1,0.9,1.1,0.9
172,'            ',230.0,1,1,1,1,1.0017563,-7.4559768,1.1,0.9,1.1,0.9
173,'            ',115.0,1,1,1,1,1.0153297,-11.225035,1.1,0.9,1.1,0.9
174,'            ',230.0,1,1,1,1,1.0011903,-7.4594595,1.1,0.9,1.1,0.9
175,'            ',115.0,1,1,1,1,1.0463572,-0.72089709,1.1,0.9,1.1,0.9
176,'            ',115.0,1,1,1,1,1.0434986,0.75939506,1.1,0.9,1.1,0.9
177,'            ',115.0,1,1,1,1,1.0434647,0.75604319,1.1,0.9,1.1,0.9
178,'            ',230.0,1,1,1,1,1.046268,-9.5946601,1.1,0.9,1.1,0.9
179,'            ',115.0,1,1,1,1,1.0463326,-9.710924,1.1,0.9,1.1,0.9
180,'            ',230.0,1,1,1,1,1.0462768,-9.5920657,1.1,0.9,1.1,0.9
181,'            ',230.0,1,1,1,1,1.046268,-9.5946601,1.1,0.9,1.1,0.9
182,'            ',115.0,1,1,1,1,0.99497797,-1.0623321,1.1,0.9,1.1,0.9
183,'            ',115.0,1,1,1,1,0.995,-1.0579989,1.1,0.9,1.1,0.9
184,'            ',115.0,1,1,1,1,1.0109518,-4.2911436,1.1,0.9,1.1,0.9
185,'            ',115.0,1,1,1,1,1.0197266,0.073303669,1.1,0.9,1.1,0.9
186,'            ',115.0,1,1,1,1,1.0164583,0.067755841,1.1,0.9,1.1,0.9
187,'            ',115.0,1,1,1,1,1.0164174,-0.073787635,1.1,0.9,1.1,0.9
188,'            ',115.0,1,1,1,1,1.0163186,-0.082243701,1.1,0.9,1.1,0.9
189,'            ',115.0,1,1,1,1,1.0597806,-7.9516367,1.1,0.9,1.1,0.9
190,'            ',115.0,1,1,1,1,1.0477734,-9.2086117,1.1,0.9,1.1,0.9
191,'            ',115.0,1,1,1,1,1.0429866,-3.7575921,1.1,0.9,1.1,0.9
192,'            ',115.0,1,1,1,1,1.0071542,-0.022148019,1.1,0.9,1.1,0.9
193,'            ',115.0,1,1,1,1,0.995,0.19166848,1.1,0.9,1.1,0.9
194,'            ',230.0,1,1,1,1,1.0365,1.5482172,1.1,0.9,1.1,0.9
195,'            ',115.0,1,1,1,1,1.0228474,0.31356266,1.1,0.9,1.1,0.9
196,'            ',230.0,1,1,1,1,1.0356847,1.6829282,1.1,0.9,1.1,0.9
197,'            ',115.0,1,1,1,1,1.0012112,-0.20368018,1.1,0.9,1.1,0.9
198,'            ',230.0,1,1,1,1,1.0119868,0.8286586,1.1,0.9,1.1,0.9
199,'            ',115.0,1,1,1,1,1.00847,0.11064455,1.1,0.9,1.1,0.9
200,'            ',230.0,1,1,1,1,1.0118066,0.81271535,1.1,0.9,1.1,0.9
...
0 / END OF BUS DATA BEGIN LOAD DATA
1,'1',1,1,1,11.822,6.669,0.0,0.0,0.0,0.0,1,1,0
2,'1',1,1,1,6.762,3.285,0.0,0.0,0.0,0.0,1,1,0
3,'1',1,1,1,8.03,0.748,0.0,0.0,0.0,0.0,1,1,0
4,'1',1,1,1,4.928,1.185,0.0,0.0,0.0,0.0,1,1,0
6,'1',1,1,1,5.59,2.565,0.0,0.0,0.0,0.0,1,1,0
7,'1',1,1,1,11.176,1.997,0.0,0.0,0.0,0.0,1,1,0
8,'1',1,1,1,14.046,0.898,0.0,0.0,0.0,0.0,1,1,0
9,'1',1,1,1,11.529,5.063,0.0,0.0,0.0,0.0,1,1,0
10,'1',1,1,1,22.069,5.386,0.0,0.0,0.0,0.0,1,1,0
11,'1',1,1,1,6.207,0.363,0.0,0.0,0.0,0.0,1,1,0
14,'1',1,1,1,12.41,3.664,0.0,0.0,0.0,0.0,1,1,0
18,'1',1,1,1,18.679,1.546,0.0,0.0,0.0,0.0,1,1,0
21,'1',1,1,1,33.299,2.674,0.0,0.0,0.0,0.0,1,1,0
24,'1',1,1,1,13.066,4.958,0.0,0.0,0.0,0.0,1,1,0
25,'1',1,1,1,13.409,4.526,0.0,0.0,0.0,0.0,1,1,0
26,'1',1,1,1,5.423,0.769,0.0,0.0,0.0,0.0,1,1,0
30,'1',1,1,1,40.648,13.064,0.0,0.0,0.0,0.0,1,1,0
33,'1',1,1,1,26.588,6.091,0.0,0.0,0.0,0.0,1,1,0
34,'1',1,1,1,11.084,6.845,0.0,0.0,0.0,0.0,1,1,0
36,'1',1,1,1,9.881,2.808,0.0,0.0,0.0,0.0,1,1,0
39,'1',1,1,1,20.817,10.588,0.0,0.0,0.0,0.0,1,1,0
40,'1',1,1,1,13.218,2.443,0.0,0.0,0.0,0.0,1,1,0
41,'1',1,1,1,12.292,4.104,0.0,0.0,0.0,0.0,1,1,0
42,'1',1,1,1,13.218,0.881,0.0,0.0,0.0,0.0,1,1,0
43,'1',1,1,1,15.202,5.933,0.0,0.0,0.0,0.0,1,1,0
44,'1',1,1,1,12.165,3.206,0.0,0.0,0.0,0.0,1,1,0
45,'1',1,1,1,9.598,2.308,0.0,0.0,0.0,0.0,1,1,0
46,'1',1,1,1,14.551,3.264,0.0,0.0,0.0,0.0,1,1,0
47,'1',1,1,1,7.806,1.275,0.0,0.0,0.0,0.0,1,1,0
48,'1',1,1,1,13.19,2.376,0.0,0.0,0.0,0.0,1,1,0
49,'1',1,1,1,1.491,0.523,0.0,0.0,0.0,0.0,1,1,0
51,'1',1,1,1,10.342,2.778,0.0,0.0,0.0,0.0,1,1,0
52,'1',1,1,1,20.684,6.182,0.0,0.0,0.0,0.0,1,1,0
55,'1',1,1,1,19.729,2.463,0.0,0.0,0.0,0.0,1,1,0
57,'1',1,1,1,7.508,1.539,0.0,0.0,0.0,0.0,1,1,0
58,'1',1,1,1,16.133,9.393,0.0,0.0,0.0,0.0,1,1,0
59,'1',1,1,1,15.212,1.71,0.0,0.0,0.0,0.0,1,1,0
60,'1',1,1,1,8.73,4.616,0.0,0.0,0.0,0.0,1,1,0
61,'1',1,1,1,8.73,1.443,0.0,0.0,0.0,0.0,1,1,0
62,'1',1,1,1,23.781,4.208,0.0,0.0,0.0,0.0,1,1,0
66,'1',1,1,1,38.15,6.834,0.0,0.0,0.0,0.0,1,1,0
67,'1',1,1,1,10.808,1.186,0.0,0.0,0.0,0.0,1,1,0
69,'1',1,1,1,12.138,2.793,0.0,0.0,0.0,0.0,1,1,0
70,'1',1,1,1,14.397,4.802,0.0,0.0,0.0,0.0,1,1,0
71,'1',1,1,1,7.348,1.933,0.0,0.0,0.0,0.0,1,1,0
74,'1',1,1,1,14.515,0.636,0.0,0.0,0.0,0.0,1,1,0
76,'1',1,1,1,6.452,1.143,0.0,0.0,0.0,0.0,1,1,0
77,'1',1,1,1,18.886,0.246,0.0,0.0,0.0,0.0,1,1,0
78,'1',1,1,1,3.896,0.67,0.0,0.0,0.0,0.0,1,1,0
82,'1',1,1,1,58.364,5.115,0.0,0.0,0.0,0.0,1,1,0
84,'1',1,1,1,30.607,10.948,0.0,0.0,0.0,0.0,1,1,0
86,'1',1,1,1,3.204,0.775,0.0,0.0,0.0,0.0,1,1,0
88,'1',1,1,1,32.058,24.366,0.0,0.0,0.0,0.0,1,1,0
90,'1',1,1,1,23.701,8.185,0.0,0.0,0.0,0.0,1,1,0
94,'1',1,1,1,41.22,13.537,0.0,0.0,0.0,0.0,1,1,0
96,'1',1,1,1,5.337,2.17,0.0,0.0,0.0,0.0,1,1,0
97,'1',1,1,1,7.837,2.344,0.0,0.0,0.0,0.0,1,1,0
98,'1',1,1,1,17.249,6.483,0.0,0.0,0.0,0.0,1,1,0
100,'1',1,1,1,14.276,3.491,0.0,0.0,0.0,0.0,1,1,0
101,'1',1,1,1,10.222,1.425,0.0,0.0,0.0,0.0,1,1,0
103,'1',1,1,1,19.167,2.847,0.0,0.0,0.0,0.0,1,1,0
104,'1',1,1,1,35.384,3.798,0.0,0.0,0.0,0.0,1,1,0
106,'1',1,1,1,42.43,22.906,0.0,0.0,0.0,0.0,1,1,0
109,'1',1,1,1,53.462,6.769,0.0,0.0,0.0,0.0,1,1,0
111,'1',1,1,1,7.647,2.038,0.0,0.0,0.0,0.0,1,1,0
112,'1',1,1,1,17.686,6.954,0.0,0.0,0.0,0.0,1,1,0
113,'1',1,1,1,55.948,17.0,0.0,0.0,0.0,0.0,1,1,0
114,'1',1,1,1,55.269,19.978,0.0,0.0,0.0,0.0,1,1,0
116,'1',1,1,1,43.193,9.002,0.0,0.0,0.0,0.0,1,1,0
119,'1',1,1,1,12.708,5.973,0.0,0.0,0.0,0.0,1,1,0
121,'1',1,1,1,19.596,8.443,0.0,0.0,0.0,0.0,1,1,0
122,'1',1,1,1,5.325,0.844,0.0,0.0,0.0,0.0,1,1,0
123,'1',1,1,1,5.266,1.553,0.0,0.0,0.0,0.0,1,1,0
124,'1',1,1,1,22.752,5.835,0.0,0.0,0.0,0.0,1,1,0
125,'1',1,1,1,36.801,12.775,0.0,0.0,0.0,0.0,1,1,0
126,'1',1,1,1,20.741,7.478,0.0,0.0,0.0,0.0,1,1,0
127,'1',1,1,1,9.773,1.312,0.0,0.0,0.0,0.0,1,1,0
129,'1',1,1,1,6.167,6.835,0.0,0.0,0.0,0.0,1,1,0
131,'1',1,1,1,38.964,8.521,0.0,0.0,0.0,0.0,1,1,0
135,'1',1,1,1,24.814,4.346,0.0,0.0,0.0,0.0,1,1,0
136,'1',1,1,1,12.391,2.789,0.0,0.0,0.0,0.0,1,1,0
137,'1',1,1,1,11.727,3.783,0.0,0.0,0.0,0.0,1,1,0
139,'1',1,1,1,11.528,3.625,0.0,0.0,0.0,0.0,1,1,0
140,'1',1,1,1,8.938,5.094,0.0,0.0,0.0,0.0,1,1,0
141,'1',1,1,1,9.73,6.859,0.0,0.0,0.0,0.0,1,1,0
142,'1',1,1,1,4.463,3.345,0.0,0.0,0.0,0.0,1,1,0
143,'1',1,1,1,11.302,1.827,0.0,0.0,0.0,0.0,1,1,0
145,'1',1,1,1,12.4,1.037,0.0,0.0,0.0,0.0,1,1,0
147,'1',1,1,1,6.066,0.782,0.0,0.0,0.0,0.0,1,1,0
148,'1',1,1,1,15.497,5.394,0.0,0.0,0.0,0.0,1,1,0
150,'1',1,1,1,2.933,0.251,0.0,0.0,0.0,0.0,1,1,0
151,'1',1,1,1,9.57,2.031,0.0,0.0,0.0,0.0,1,1,0
152,'1',1,1,1,10.405,6.462,0.0,0.0,0.0,0.0,1,1,0
153,'1',1,1,1,6.184,1.451,0.0,0.0,0.0,0.0,1,1,0
154,'1',1,1,1,4.263,1.667,0.0,0.0,0.0,0.0,1,1,0
155,'1',1,1,1,6.496,2.722,0.0,0.0,0.0,0.0,1,1,0
157,'1',1,1,1,5.542,0.879,0.0,0.0,0.0,0.0,1,1,0
158,'1',1,1,1,4.626,1.912,0.0,0.0,0.0,0.0,1,1,0
159,'1',1,1,1,9.716,3.954,0.0,0.0,0.0,0.0,1,1,0
162,'1',1,1,1,19.21,5.928,0.0,0.0,0.0,0.0,1,1,0
164,'1',1,1,1,9.374,2.565,0.0,0.0,0.0,0.0,1,1,0
165,'1',1,1,1,15.168,1.883,0.0,0.0,0.0,0.0,1,1,0
168,'1',1,1,1,14.88,5.066,0.0,0.0,0.0,0.0,1,1,0
169,'1',1,1,1,14.88,4.612,0.0,0.0,0.0,0.0,1,1,0
171,'1',1,1,1,15.072,4.873,0.0,0.0,0.0,0.0,1,1,0
174,'1',1,1,1,14.88,4.989,0.0,0.0,0.0,0.0,1,1,0
175,'1',1,1,1,15.222,4.216,0.0,0.0,0.0,0.0,1,1,0
177,'1',1,1,1,5.938,1.582,0.0,0.0,0.0,0.0,1,1,0
179,'1',1,1,1,16.731,3.42,0.0,0.0,0.0,0.0,1,1,0
182,'1',1,1,1,7.297,0.423,0.0,0.0,0.0,0.0,1,1,0
184,'1',1,1,1,4.504,2.222,0.0,0.0,0.0,0.0,1,1,0
185,'1',1,1,1,10.718,4.697,0.0,0.0,0.0,0.0,1,1,0
186,'1',1,1,1,10.718,5.585,0.0,0.0,0.0,0.0,1,1,0
188,'1',1,1,1,14.881,6.361,0.0,0.0,0.0,0.0,1,1,0
189,'1',1,1,1,9.416,0.666,0.0,0.0,0.0,0.0,1,1,0
190,'1',1,1,1,4.347,1.105,0.0,0.0,0.0,0.0,1,1,0
191,'1',1,1,1,4.811,2.485,0.0,0.0,0.0,0.0,1,1,0
192,'1',1,1,1,13.605,2.473,0.0,0.0,0.0,0.0,1,1,0
193,'1',1,1,1,13.223,3.785,0.0,0.0,0.0,0.0,1,1,0
195,'1',1,1,1,41.96,14.099,0.0,0.0,0.0,0.0,1,1,0
197,'1',1,1,1,14.249,3.017,0.0,0.0,0.0,0.0,1,1,0
200,'1',1,1,1,26.274,9.658,0.0,0.0,0.0,0.0,1,1,0
202,'1',1,1,1,12.615,7.274,0.0,0.0,0.0,0.0,1,1,0
204,'1',1,1,1,17.113,7.31,0.0,0.0,0.0,0.0,1,1,0
205,'1',1,1,1,15.642,1.884,0.0,0.0,0.0,0.0,1,1,0
206,'1',1,1,1,16.389,9.355,0.0,0.0,0.0,0.0,1,1,0
209,'1',1,1,1,50.7,25.32,0.0,0.0,0.0,0.0,1,1,0
211,'1',1,1,1,16.623,6.649,0.0,0.0,0.0,0.0,1,1,0
213,'1',1,1,1,2.629,0.844,0.0,0.0,0.0,0.0,1,1,0
214,'1',1,1,1,1.812,0.265,0.0,0.0,0.0,0.0,1,1,0
215,'1',1,1,1,6.689,2.829,0.0,0.0,0.0,0.0,1,1,0
219,'1',1,1,1,11.808,2.624,0.0,0.0,0.0,0.0,1,1,0
220,'1',1,1,1,2.212,0.445,0.0,0.0,0.0,0.0,1,1,0
221,'1',1,1,1,8.261,1.974,0.0,0.0,0.0,0.0,1,1,0
223,'1',1,1,1,4.172,1.798,0.0,0.0,0.0,0.0,1,1,0
224,'1',1,1,1,2.459,0.69,0.0,0.0,0.0,0.0,1,1,0
225,'1',1,1,1,8.415,1.124,0.0,0.0,0.0,0.0,1,1,0
227,'1',1,1,1,6.199,1.322,0.0,0.0,0.0,0.0,1,1,0
228,'1',1,1,1,12.321,2.73,0.0,0.0,0.0,0.0,1,1,0
229,'1',1,1,1,7.648,2.581,0.0,0.0,0.0,0.0,1,1,0
230,'1',1,1,1,21.899,2.933,0.0,0.0,0.0,0.0,1,1,0
231,'1',1,1,1,8.618,1.443,0.0,0.0,0.0,0.0,1,1,0
232,'1',1,1,1,13.599,3.367,0.0,0.0,0.0,0.0,1,1,0
233,'1',1,1,1,6.903,1.624,0.0,0.0,0.0,0.0,1,1,0
237,'1',1,1,1,18.774,6.749,0.0,0.0,0.0,0.0,1,1,0
239,'1',1,1,1,6.501,2.425,0.0,0.0,0.0,0.0,1,1,0
241,'1',1,1,1,6.044,1.276,0.0,0.0,0.0,0.0,1,1,0
242,'1',1,1,1,2.231,1.158,0.0,0.0,0.0,0.0,1,1,0
243,'1',1,1,1,4.084,5.042,0.0,0.0,0.0,0.0,1,1,0
244,'1',1,1,1,6.055,1.758,0.0,0.0,0.0,0.0,1,1,0
247,'1',1,1,1,17.231,6.418,0.0,0.0,0.0,0.0,1,1,0
249,'1',1,1,1,4.324,0.818,0.0,0.0,0.0,0.0,1,1,0
251,'1',1,1,1,4.838,1.107,0.0,0.0,0.0,0.0,1,1,0
254,'1',1,1,1,28.518,2.618,0.0,0.0,0.0,0.0,1,1,0
256,'1',1,1,1,10.812,0.695,0.0,0.0,0.0,0.0,1,1,0
258,'1',1,1,1,25.858,10.847,0.0,0.0,0.0,0.0,1,1,0
259,'1',1,1,1,13.071,7.085,0.0,0.0,0.0,0.0,1,1,0
260,'1',1,1,1,2.122,1.387,0.0,0.0,0.0,0.0,1,1,0
263,'1',1,1,1,34.228,10.257,0.0,0.0,0.0,0.0,1,1,0
264,'1',1,1,1,17.114,3.365,0.0,0.0,0.0,0.0,1,1,0
265,'1',1,1,1,20.084,3.642,0.0,0.0,0.0,0.0,1,1,0
267,'1',1,1,1,17.114,4.813,0.0,0.0,0.0,0.0,1,1,0
270,'1',1,1,1,17.177,7.797,0.0,0.0,0.0,0.0,1,1,0
271,'1',1,1,1,23.688,6.022,0.0,0.0,0.0,0.0,1,1,0
274,'1',1,1,1,8.326,4.193,0.0,0.0,0.0,0.0,1,1,0
276,'1',1,1,1,2.763,0.524,0.0,0.0,0.0,0.0,1,1,0
277,'1',1,1,1,7.705,0.74,0.0,0.0,0.0,0.0,1,1,0
278,'1',1,1,1,16.239,9.679,0.0,0.0,0.0,0.0,1,1,0
279,'1',1,1,1,4.411,0.506,0.0,0.0,0.0,0.0,1,1,0
280,'1',1,1,1,16.457,5.502,0.0,0.0,0.0,0.0,1,1,0
281,'1',1,1,1,32.914,11.821,0.0,0.0,0.0,0.0,1,1,0
282,'1',1,1,1,9.592,2.459,0.0,0.0,0.0,0.0,1,1,0
283,'1',1,1,1,34.532,10.013,0.0,0.0,0.0,0.0,1,1,0
284,'1',1,1,1,17.266,4.98,0.0,0.0,0.0,0.0,1,1,0
286,'1',1,1,1,33.723,6.666,0.0,0.0,0.0,0.0,1,1,0
290,'1',1,1,1,13.761,0.788,0.0,0.0,0.0,0.0,1,1,0
292,'1',1,1,1,21.612,15.713,0.0,0.0,0.0,0.0,1,1,0
296,'1',1,1,1,40.388,4.948,0.0,0.0,0.0,0.0,1,1,0
298,'1',1,1,1,20.193,14.259,0.0,0.0,0.0,0.0,1,1,0
300,'1',1,1,1,20.193,3.867,0.0,0.0,0.0,0.0,1,1,0
301,'1',1,1,1,6.542,2.764,0.0,0.0,0.0,0.0,1,1,0
303,'1',1,1,1,8.112,1.531,0.0,0.0,0.0,0.0,1,1,0
305,'1',1,1,1,6.918,0.9,0.0,0.0,0.0,0.0,1,1,0
306,'1',1,1,1,2.996,1.596,0.0,0.0,0.0,0.0,1,1,0
307,'1',1,1,1,4.885,0.773,0.0,0.0,0.0,0.0,1,1,0
308,'1',1,1,1,4.698,1.915,0.0,0.0,0.0,0.0,1,1,0
309,'1',1,1,1,16.7,0.804,0.0,0.0,0.0,0.0,1,1,0
313,'1',1,1,1,17.716,10.463,0.0,0.0,0.0,0.0,1,1,0
314,'1',1,1,1,16.7,1.795,0.0,0.0,0.0,0.0,1,1,0
316,'1',1,1,1,16.7,1.821,0.0,0.0,0.0,0.0,1,1,0
317,'1',1,1,1,4.811,1.149,0.0,0.0,0.0,0.0,1,1,0
319,'1',1,1,1,3.189,1.624,0.0,0.0,0.0,0.0,1,1,0
321,'1',1,1,1,4.965,0.846,0.0,0.0,0.0,0.0,1,1,0
322,'1',1,1,1,10.194,3.018,0.0,0.0,0.0,0.0,1,1,0
325,'1',1,1,1,15.586,2.04,0.0,0.0,0.0,0.0,1,1,0
327,'1',1,1,1,11.424,4.911,0.0,0.0,0.0,0.0,1,1,0
329,'1',1,1,1,15.822,4.0,0.0,0.0,0.0,0.0,1,1,0
331,'1',1,1,1,10.748,6.042,0.0,0.0,0.0,0.0,1,1,0
332,'1',1,1,1,6.573,1.486,0.0,0.0,0.0,0.0,1,1,0
336,'1',1,1,1,13.627,6.64,0.0,0.0,0.0,0.0,1,1,0
...
0 / END OF LOAD DATA BEGIN FIXED SHUNT DATA
27,'1',1,0.0,-14.972
194,'1',1,0.0,149.11
252,'1',1,0.0,121.46
371,'1',1,0.0,8.135
383,'1',1,0.0,20.465
473,'1',1,0.0,265.444
509,'1',1,0.0,6.651
567,'1',1,0.0,20.904
590,'1',1,0.0,2.154
748,'1',1,0.0,130.16
759,'1',1,0.0,132.816
834,'1',1,0.0,19.493
842,'1',1,0.0,36.895
898,'1',1,0.0,8.431
902,'1',1,0.0,9.044
1020,'1',1,0.0,16.524
1116,'1',1,0.0,329.044
1120,'1',1,0.0,1.201
1277,'1',1,0.0,62.967
1296,'1',1,0.0,141.952
1300,'1',1,0.0,23.693
1320,'1',1,0.0,1.2
1343,'1',1,0.0,91.764
1444,'1',1,0.0,17.891
1472,'1',1,0.0,7.35
1502,'1',1,0.0,7.332
1567,'1',1,0.0,22.454
1737,'1',1,0.0,12.764
1794,'1',1,0.0,80.756
1816,'1',1,0.0,94.608
1822,'1',1,0.0,2.02
1888,'1',1,0.0,261.201
1977,'1',1,0.0,76.6
2001,'1',1,0.0,46.373
2136,'1',1,0.0,9.306
2144,'1',1,0.0,12.056
2189,'1',1,0.0,2.408
2199,'1',1,0.0,71.708
2986,'1',1,0.0,40.851
3117,'1',1,0.0,-3.531
3209,'1',1,0.0,5.879
3306,'1',1,0.0,22.971
3385,'1',1,0.0,21.785
3401,'1',1,0.0,-18.96
3428,'1',1,0.0,248.214
3447,'1',1,0.0,150.924
3811,'1',1,0.0,-72.12
3892,'1',1,0.0,-40.889
4030,'1',1,0.0,-1.345
4565,'1',1,0.0,26.858
4629,'1',1,0.0,25.799
4799,'1',1,0.0,155.93
5065,'1',1,0.0,-6.578
6039,'1',1,0.0,21.797
6059,'1',1,0.0,-42.46
6249,'1',1,0.0,-29.193
6496,'1',1,0.0,14.886
6901,'1',1,0.0,-6.693
7143,'1',1,0.0,0.439
7459,'1',1,0.0,29.794
7654,'1',1,0.0,98.998
7674,'1',1,0.0,60.136
7853,'1',1,0.0,5.914
8032,'1',1,0.0,60.166
8172,'1',1,0.0,-25.651
8208,'1',1,0.0,12.965
8215,'1',1,0.0,10.807
8233,'1',1,0.0,31.063
8259,'1',1,0.0,1.141
8264,'1',1,0.0,21.034
8882,'1',1,0.0,80.0
9050,'1',1,0.0,-32.33
9232,'1',1,0.0,0.787
9614,'1',1,0.0,-2.85
0 / END OF FIXED SHUNT DATA BEGIN GENERATOR DATA
2275,'1',43.260881,-10.6,48.61,-10.6,1.0365296,0,95.5,0.0,1.0,0.0,0.0,1.0,1,1.0,95.5,29.823,1,1.0,0,1.0,0,1.0,0,1.0,0,1.0
2276,'1',51.065681,-9.5113601,48.61,-10.6,1.036,0,95.5,0.0,1.0,0.0,0.0,1.0,1,1.0,95.5,39.579,1,1.0,0,1.0,0,1.0,0,1.0,0,1.0
2277,'1',28.830481,-9.379593,48.61,-10.6,1.036,0,95.5,0.0,1.0,0.0,0.0,1.0,1,1.0,95.5,11.785,1,1.0,0,1.0,0,1.0,0,1.0,0,1.0
2278,'1',28.460881,-10.6,48.61,-10.6,1.036,0,95.5,0.0,1.0,0.0,0.0,1.0,1,1.0,95.5,11.323,1,1.0,0,1.0,0,1.0,0,1.0,0,1.0
2279,'1',37.446481,-10.507921,48.61,-10.6,1.036,0,95.5,0.0,1.0,0.0,0.0,1.0,1,1.0,95.5,22.555,1,1.0,0,1.0,0,1.0,0,1.0,0,1.0
2280,'1',34.721681,-9.3670415,48.61,-10.6,1.036,0,95.5,0.0,1.0,0.0,0.0,1.0,1,1.0,95.5,19.149,1,1.0,0,1.0,0,1.0,0,1.0,0,1.0
2285,'1',201.0,-17.519648,42.813,-28.944,1.04,0,201.0,0.0,1.0,0.0,0.0,1.0,1,1.0,201.0,58.433,1,1.0,0,1.0,0,1.0,0,1.0,0,1.0
2289,'1',2.859,-0.927,3.542,-0.927,1.0507471,0,7.6,0.0,1.0,0.0,0.0,1.0,0,1.0,7.6,2.682,1,1.0,0,1.0,0,1.0,0,1.0,0,1.0
2289,'2',1.768,-0.573,2.19,-0.573,1.0507471,0,4.7,0.0,1.0,0.0,0.0,1.0,0,1.0,4.7,1.507,1,1.0,0,1.0,0,1.0,0,1.0,0,1.0
2290,'1',0.79,-0.211,0.808,-0.211,1.0507471,0,1.73,0.0,1.0,0.0,0.0,1.0,0,1.0,1.733,0.79,1,1.0,0,1.0,0,1.0,0,1.0,0,1.0
2290,'2',0.652,-0.211,0.808,-0.211,1.0507471,0,1.73,0.0,1.0,0.0,0.0,1.0,0,1.0,1.733,0.337,1,1.0,0,1.0,0,1.0,0,1.0,0,1.0
2291,'1',0.652,-0.211,0.808,-0.211,1.0507471,0,1.73,0.0,1.0,0.0,0.0,1.0,0,1.0,1.733,0.583,1,1.0,0,1.0,0,1.0,0,1.0,0,1.0
2291,'2',0.849,-0.211,0.808,-0.211,1.0507471,0,1.73,0.0,1.0,0.0,0.0,1.0,0,1.0,1.733,0.849,1,1.0,0,1.0,0,1.0,0,1.0,0,1.0
2292,'1',0.652,-0.211,0.808,-0.211,1.0507471,0,1.73,0.0,1.0,0.0,0.0,1.0,0,1.0,1.733,0.316,1,1.0,0,1.0,0,1.0,0,1.0,0,1.0
2293,'1',0.652,-0.211,0.808,-0.211,1.0507471,0,1.73,0.0,1.0,0.0,0.0,1.0,0,1.0,1.733,0.545,1,1.0,0,1.0,0,1.0,0,1.0,0,1.0
2294,'1',0.602,-0.195,0.746,-0.195,1.0507471,0,1.6,0.0,1.0,0.0,0.0,1.0,0,1.0,1.6,0.427,1,1.0,0,1.0,0,1.0,0,1.0,0,1.0
2294,'2',0.602,-0.195,0.746,-0.195,1.0507471,0,1.6,0.0,1.0,0.0,0.0,1.0,0,1.0,1.6,0.429,1,1.0,0,1.0,0,1.0,0,1.0,0,1.0
2295,'1',0.564,-0.183,0.699,-0.183,1.0507471,0,1.5,0.0,1.0,0.0,0.0,1.0,0,1.0,1.5,0.455,1,1.0,0,1.0,0,1.0,0,1.0,0,1.0
2295,'2',0.527,-0.171,0.652,-0.171,1.0507471,0,1.4,0.0,1.0,0.0,0.0,1.0,0,1.0,1.4,0.161,1,1.0,0,1.0,0,1.0,0,1.0,0,1.0
2296,'1',0.238,-0.061,0.233,-0.061,1.0507471,0,0.5,0.0,1.0,0.0,0.0,1.0,0,1.0,0.5,0.238,1,1.0,0,1.0,0,1.0,0,1.0,0,1.0
2302,'1',111.202,129.071,149.646,-32.634,1.0128485,0,294.0,0.0,1.0,0.0,0.0,1.0,0,1.0,294.0,111.202,1,1.0,0,1.0,0,1.0,0,1.0,0,1.0
2303,'1',87.715,43.051,149.646,-32.634,1.0252761,0,294.0,0.0,1.0,0.0,0.0,1.0,0,1.0,294.0,87.715,1,1.0,0,1.0,0,1.0,0,1.0,0,1.0
2304,'1',73.167,100.92,149.646,-32.634,1.0190244,0,294.0,0.0,1.0,0.0,0.0,1.0,0,1.0,294.0,73.167,1,1.0,0,1.0,0,1.0,0,1.0,0,1.0
2310,'1',274.004,0.0,290.038,-75.933,1.0421177,0,622.4,0.0,1.0,0.0,0.0,1.0,0,1.0,622.4,274.004,1,1.0,0,1.0,0,1.0,0,1.0,0,1.0
2315,'1',112.5,49.76391,57.262,-12.488,1.0135,0,112.5,0.0,1.0,0.0,0.0,1.0,1,1.0,112.5,50.341,1,1.0,0,1.0,0,1.0,0,1.0,0,1.0
2316,'1',112.5,46.045253,57.262,-12.488,1.0135,0,112.5,0.0,1.0,0.0,0.0,1.0,1,1.0,112.5,36.523,1,1.0,0,1.0,0,1.0,0,1.0,0,1.0
2317,'1',112.5,23.697306,57.262,-12.488,1.0135,0,112.5,0.0,1.0,0.0,0.0,1.0,1,1.0,112.5,47.475,1,1.0,0,1.0,0,1.0,0,1.0,0,1.0
2318,'1',112.5,46.988842,57.262,-12.488,1.0135,0,112.5,0.0,1.0,0.0,0.0,1.0,1,1.0,112.5,15.094,1,1.0,0,1.0,0,1.0,0,1.0,0,1.0
2323,'1',161.0,-11.662356,34.293,-23.184,1.04,0,161.0,0.0,1.0,0.0,0.0,1.0,1,1.0,161.0,25.175,1,1.0,0,1.0,0,1.0,0,1.0,0,1.0
2327,'1',101.2,-6.4809455,21.556,-14.573,1.04,0,101.2,0.0,1.0,0.0,0.0,1.0,1,1.0,101.2,39.642,1,1.0,0,1.0,0,1.0,0,1.0,0,1.0
2332,'1',159.27195,0.52762646,93.317,-20.35,1.0625,0,183.33,0.0,1.0,0.0,0.0,1.0,1,1.0,183.333,54.251,1,1.0,0,1.0,0,1.0,0,1.0,0,1.0
2333,'1',183.333,14.075527,93.317,-20.35,1.0625,0,183.33,0.0,1.0,0.0,0.0,1.0,1,1.0,183.333,85.229,1,1.0,0,1.0,0,1.0,0,1.0,0,1.0
2334,'1',179.2633,-0.16126479,93.317,-20.35,1.0625,0,183.33,0.0,1.0,0.0,0.0,1.0,1,1.0,183.333,69.843,1,1.0,0,1.0,0,1.0,0,1.0,0,1.0
2340,'1',187.779,0.0,336.452,-88.084,1.0349975,0,722.0,0.0,1.0,0.0,0.0,1.0,0,1.0,722.0,187.779,1,1.0,0,1.0,0,1.0,0,1.0,0,1.0
2341,'1',295.436,0.0,336.452,-88.084,1.0349975,0,722.0,0.0,1.0,0.0,0.0,1.0,0,1.0,722.0,295.436,1,1.0,0,1.0,0,1.0,0,1.0,0,1.0
2346,'1',29.10636,-4.4293744,45.505,-9.923,1.036,0,89.4,0.0,1.0,0.0,0.0,1.0,1,1.0,89.4,13.679,1,1.0,0,1.0,0,1.0,0,1.0,0,1.0
2347,'1',34.90636,-5.9635242,45.505,-9.923,1.036,0,89.4,0.0,1.0,0.0,0.0,1.0,1,1.0,89.4,20.929,1,1.0,0,1.0,0,1.0,0,1.0,0,1.0
2348,'1',32.84716,-3.8367767,45.505,-9.923,1.036,0,89.4,0.0,1.0,0.0,0.0,1.0,1,1.0,89.4,18.355,1,1.0,0,1.0,0,1.0,0,1.0,0,1.0
2349,'1',47.66556,-3.7159707,45.505,-9.923,1.036,0,89.4,0.0,1.0,0.0,0.0,1.0,1,1.0,89.4,36.878,1,1.0,0,1.0,0,1.0,0,1.0,0,1.0
2350,'1',38.62236,-5.8913016,45.505,-9.923,1.036,0,89.4,0.0,1.0,0.0,0.0,1.0,1,1.0,89.4,25.574,1,1.0,0,1.0,0,1.0,0,1.0,0,1.0
2351,'1',51.19116,-4.0521004,45.505,-9.923,1.036,0,89.4,0.0,1.0,0.0,0.0,1.0,1,1.0,89.4,41.285,1,1.0,0,1.0,0,1.0,0,1.0,0,1.0
2352,'1',0.17916196,-0.024442682,0.221,-0.048,1.04,0,0.43,0.0,1.0,0.0,0.0,1.0,1,1.0,0.433,0.114,1,1.0,0,1.0,0,1.0,0,1.0,0,1.0
2353,'1',0.22716196,-0.008046076,0.221,-0.048,1.036,0,0.43,0.0,1.0,0.0,0.0,1.0,1,1.0,0.433,0.174,1,1.0,0,1.0,0,1.0,0,1.0,0,1.0
2353,'2',0.25676196,-0.008046076,0.221,-0.048,1.036,0,0.43,0.0,1.0,0.0,0.0,1.0,1,1.0,0.433,0.211,1,1.0,0,1.0,0,1.0,0,1.0,0,1.0
2358,'1',15.775,-1.0537257,8.029,-1.751,1.04,0,15.77,0.0,1.0,0.0,0.0,1.0,1,1.0,15.775,2.354,1,1.0,0,1.0,0,1.0,0,1.0,0,1.0
2358,'2',15.775,-1.0537257,8.029,-1.751,1.04,0,15.77,0.0,1.0,0.0,0.0,1.0,1,1.0,15.775,7.877,1,1.0,0,1.0,0,1.0,0,1.0,0,1.0
2359,'1',15.775,-1.73043,8.029,-1.751,1.0419229,0,15.77,0.0,1.0,0.0,0.0,1.0,1,1.0,15.775,5.353,1,1.0,0,1.0,0,1.0,0,1.0,0,1.0
2360,'1',15.775,4.9787318,8.029,-1.751,1.045,0,15.77,0.0,1.0,0.0,0.0,1.0,1,1.0,15.775,4.735,1,1.0,0,1.0,0,1.0,0,1.0,0,1.0
2364,'1',141.26654,-19.80216,90.856,-19.814,1.038368,0,178.5,0.0,1.0,0.0,0.0,1.0,1,1.0,178.5,21.473,1,1.0,0,1.0,0,1.0,0,1.0,0,1.0
2365,'1',178.5,-19.699143,90.856,-19.814,1.037274,0,178.5,0.0,1.0,0.0,0.0,1.0,1,1.0,178.5,49.538,1,1.0,0,1.0,0,1.0,0,1.0,0,1.0
2366,'1',149.77254,-13.933661,90.856,-19.814,1.036,0,178.5,0.0,1.0,0.0,0.0,1.0,1,1.0,178.5,56.891,1,1.0,0,1.0,0,1.0,0,1.0,0,1.0
2371,'1',81.113,-26.314,123.891,-27.017,1.0558323,0,243.4,0.0,1.0,0.0,0.0,1.0,0,1.0,243.4,39.17,1,1.0,0,1.0,0,1.0,0,1.0,0,1.0
2372,'1',78.726,-27.017,123.891,-27.017,1.0558323,0,243.4,0.0,1.0,0.0,0.0,1.0,0,1.0,243.4,78.726,1,1.0,0,1.0,0,1.0,0,1.0,0,1.0
2373,'1',112.876,-22.727,123.891,-27.017,1.0558323,0,243.4,0.0,1.0,0.0,0.0,1.0,0,1.0,243.4,112.876,1,1.0,0,1.0,0,1.0,0,1.0,0,1.0
2376,'1',3.45,-0.383,1.756,-0.383,1.0452856,0,3.45,0.0,1.0,0.0,0.0,1.0,1,1.0,3.45,0.659,1,1.0,0,1.0,0,1.0,0,1.0,0,1.0
2376,'2',3.45,-0.383,1.756,-0.383,1.0452856,0,3.45,0.0,1.0,0.0,0.0,1.0,1,1.0,3.45,1.486,1,1.0,0,1.0,0,1.0,0,1.0,0,1.0
2376,'3',5.0,-0.555,2.545,-0.555,1.0452856,0,5.0,0.0,1.0,0.0,0.0,1.0,1,1.0,5.0,1.574,1,1.0,0,1.0,0,1.0,0,1.0,0,1.0
2376,'4',48.0,-5.328,24.432,-5.328,1.0452856,0,48.0,0.0,1.0,0.0,0.0,1.0,1,1.0,48.0,9.187,1,1.0,0,1.0,0,1.0,0,1.0,0,1.0
2379,'1',39.6,12.978623,148.609,0.0,1.04,0,39.6,0.0,1.0,0.0,0.0,1.0,1,1.0,39.6,13.389,1,1.0,0,1.0,0,1.0,0,1.0,0,1.0
2384,'1',130.0,56.1627,66.17,-14.43,1.009,0,130.0,0.0,1.0,0.0,0.0,1.0,1,1.0,130.0,29.611,1,1.0,0,1.0,0,1.0,0,1.0,0,1.0
2385,'1',126.5625,58.811923,66.17,-14.43,1.009,0,130.0,0.0,1.0,0.0,0.0,1.0,1,1.0,130.0,35.775,1,1.0,0,1.0,0,1.0,0,1.0,0,1.0
2390,'1',155.9,-17.305,79.353,-17.305,1.0623316,0,155.9,0.0,1.0,0.0,0.0,1.0,1,1.0,155.9,39.963,1,1.0,0,1.0,0,1.0,0,1.0,0,1.0
2391,'1',118.13654,-17.305,79.353,-17.305,1.0594982,0,155.9,0.0,1.0,0.0,0.0,1.0,1,1.0,155.9,49.889,1,1.0,0,1.0,0,1.0,0,1.0,0,1.0
2392,'1',145.50874,-17.305,79.353,-17.305,1.0590086,0,155.9,0.0,1.0,0.0,0.0,1.0,1,1.0,155.9,21.03,1,1.0,0,1.0,0,1.0,0,1.0,0,1.0
2397,'1',77.142,0.0,335.986,-87.962,1.0409554,0,721.0,0.0,1.0,0.0,0.0,1.0,0,1.0,721.0,77.142,1,1.0,0,1.0,0,1.0,0,1.0,0,1.0
2401,'1',0.85213548,21.447776,148.609,-0.157,1.039,0,3.2,0.0,1.0,0.0,0.0,1.0,1,1.0,3.2,0.842,1,1.0,0,1.0,0,1.0,0,1.0,0,1.0
2401,'2',1.4071355,0.044284025,1.229,-0.157,1.039,0,3.2,0.0,1.0,0.0,0.0,1.0,1,1.0,3.2,1.397,1,1.0,0,1.0,0,1.0,0,1.0,0,1.0
2401,'3',1.2481355,0.044284025,1.229,-0.157,1.039,0,3.2,0.0,1.0,0.0,0.0,1.0,1,1.0,3.2,1.238,1,1.0,0,1.0,0,1.0,0,1.0,0,1.0
2401,'4',7.6305221,0.45814245,12.672,-1.617,1.039,0,33.0,0.0,1.0,0.0,0.0,1.0,1,1.0,33.0,7.526,1,1.0,0,1.0,0,1.0,0,1.0,0,1.0
2401,'5',8.0495221,0.45814245,12.672,-1.617,1.039,0,33.0,0.0,1.0,0.0,0.0,1.0,1,1.0,33.0,7.945,1,1.0,0,1.0,0,1.0,0,1.0,0,1.0
2404,'1',76.25,-8.4498848,16.241,-10.98,1.0455,0,76.25,0.0,1.0,0.0,0.0,1.0,1,1.0,76.25,15.232,1,1.0,0,1.0,0,1.0,0,1.0,0,1.0
2404,'2',76.25,-8.4498848,16.241,-10.98,1.0455,0,76.25,0.0,1.0,0.0,0.0,1.0,1,1.0,76.25,22.085,1,1.0,0,1.0,0,1.0,0,1.0,0,1.0
2409,'1',28.0,1.8169488,14.252,-3.108,1.033,0,28.0,0.0,1.0,0.0,0.0,1.0,1,1.0,28.0,3.66,1,1.0,0,1.0,0,1.0,0,1.0,0,1.0
2409,'2',28.0,1.8169488,14.252,-3.108,1.033,0,28.0,0.0,1.0,0.0,0.0,1.0,1,1.0,28.0,4.228,1,1.0,0,1.0,0,1.0,0,1.0,0,1.0
2410,'1',28.0,-2.9582549,14.252,-3.108,1.0473664,0,28.0,0.0,1.0,0.0,0.0,1.0,1,1.0,28.0,8.52,1,1.0,0,1.0,0,1.0,0,1.0,0,1.0
2411,'1',28.0,-1.036857,14.252,-3.108,1.04,0,28.0,0.0,1.0,0.0,0.0,1.0,1,1.0,28.0,9.61,1,1.0,0,1.0,0,1.0,0,1.0,0,1.0
2411,'2',28.0,-1.036857,14.252,-3.108,1.04,0,28.0,0.0,1.0,0.0,0.0,1.0,1,1.0,28.0,3.693,1,1.0,0,1.0,0,1.0,0,1.0,0,1.0
2412,'1',28.0,-3.0330046,14.252,-3.108,1.0437568,0,28.0,0.0,1.0,0.0,0.0,1.0,1,1.0,28.0,4.069,1,1.0,0,1.0,0,1.0,0,1.0,0,1.0
2416,'1',28.3,-2.469801,14.405,-3.141,1.04,0,28.3,0.0,1.0,0.0,0.0,1.0,1,1.0,28.3,12.782,1,1.0,0,1.0,0,1.0,0,1.0,0,1.0
2416,'2',28.3,-2.469801,14.405,-3.141,1.04,0,28.3,0.0,1.0,0.0,0.0,1.0,1,1.0,28.3,8.123,1,1.0,0,1.0,0,1.0,0,1.0,0,1.0
2417,'1',28.3,-2.1061605,14.405,-3.141,1.04,0,28.3,0.0,1.0,0.0,0.0,1.0,1,1.0,28.3,14.024,1,1.0,0,1.0,0,1.0,0,1.0,0,1.0
2417,'2',28.3,-2.1061605,14.405,-3.141,1.04,0,28.3,0.0,1.0,0.0,0.0,1.0,1,1.0,28.3,3.342,1,1.0,0,1.0,0,1.0,0,1.0,0,1.0
2418,'1',28.3,-2.4226177,14.405,-3.141,1.04,0,28.3,0.0,1.0,0.0,0.0,1.0,1,1.0,28.3,9.646,1,1.0,0,1.0,0,1.0,0,1.0,0,1.0
2418,'2',28.3,-2.4226177,14.405,-3.141,1.04,0,28.3,0.0,1.0,0.0,0.0,1.0,1,1.0,28.3,7.23,1,1.0,0,1.0,0,1.0,0,1.0,0,1.0
2423,'1',61.0,31.049,31.049,-6.771,1.0217374,0,61.0,0.0,1.0,0.0,0.0,1.0,1,1.0,61.0,8.738,1,1.0,0,1.0,0,1.0,0,1.0,0,1.0
2424,'1',24.0,-2.6637001,12.216,-2.664,1.0401275,0,24.0,0.0,1.0,0.0,0.0,1.0,1,1.0,24.0,4.166,1,1.0,0,1.0,0,1.0,0,1.0,0,1.0
2428,'1',112.194,126.571,126.571,-27.602,1.0269526,0,248.67,0.0,1.0,0.0,0.0,1.0,0,1.0,248.667,112.194,1,1.0,0,1.0,0,1.0,0,1.0,0,1.0
2429,'1',88.972,10.799,126.571,-27.602,1.0269526,0,248.67,0.0,1.0,0.0,0.0,1.0,0,1.0,248.667,88.972,1,1.0,0,1.0,0,1.0,0,1.0,0,1.0
2430,'1',83.42,126.571,126.571,-27.602,1.0269526,0,248.67,0.0,1.0,0.0,0.0,1.0,0,1.0,248.667,83.42,1,1.0,0,1.0,0,1.0,0,1.0,0,1.0
2433,'1',28.02316,1.9211818,45.505,-9.923,1.044,0,89.4,0.0,1.0,0.0,0.0,1.0,1,1.0,89.4,12.325,1,1.0,0,1.0,0,1.0,0,1.0,0,1.0
2433,'2',30.37436,1.9211818,45.505,-9.923,1.044,0,89.4,0.0,1.0,0.0,0.0,1.0,1,1.0,89.4,15.264,1,1.0,0,1.0,0,1.0,0,1.0,0,1.0
2433,'3',37.29916,1.9211818,45.505,-9.923,1.044,0,89.4,0.0,1.0,0.0,0.0,1.0,1,1.0,89.4,23.92,1,1.0,0,1.0,0,1.0,0,1.0,0,1.0
2433,'4',47.21916,1.9211818,45.505,-9.923,1.044,0,89.4,0.0,1.0,0.0,0.0,1.0,1,1.0,89.4,36.32,1,1.0,0,1.0,0,1.0,0,1.0,0,1.0
2433,'5',26.74716,1.9211818,45.505,-9.923,1.044,0,89.4,0.0,1.0,0.0,0.0,1.0,1,1.0,89.4,10.73,1,1.0,0,1.0,0,1.0,0,1.0,0,1.0
2441,'1',168.333,85.682,85.682,-18.685,1.0176029,0,168.33,0.0,1.0,0.0,0.0,1.0,1,1.0,168.333,53.326,1,1.0,0,1.0,0,1.0,0,1.0,0,1.0
2442,'1',154.40293,85.018031,85.682,-18.685,1.0182803,0,168.33,0.0,1.0,0.0,0.0,1.0,1,1.0,168.333,48.665,1,1.0,0,1.0,0,1.0,0,1.0,0,1.0
2443,'1',168.333,85.682,85.682,-18.685,1.0168958,0,168.33,0.0,1.0,0.0,0.0,1.0,1,1.0,168.333,75.409,1,1.0,0,1.0,0,1.0,0,1.0,0,1.0
2449,'1',143.07475,169.088,169.088,-35.226,1.0261909,0,317.35,0.0,1.0,0.0,0.0,1.0,1,1.0,317.35,134.767,1,1.0,0,1.0,0,1.0,0,1.0,0,1.0
2450,'1',131.01435,100.634,100.634,-35.226,1.015242,0,317.35,0.0,1.0,0.0,0.0,1.0,1,1.0,317.35,113.719,1,1.0,0,1.0,0,1.0,0,1.0,0,1.0
2455,'1',131.8,16.326948,67.086,-14.63,1.032,0,131.8,0.0,1.0,0.0,0.0,1.0,1,1.0,131.8,53.208,1,1.0,0,1.0,0,1.0,0,1.0,0,1.0
2456,'1',71.251055,13.99286,67.086,-14.63,1.0365,0,131.8,0.0,1.0,0.0,0.0,1.0,1,1.0,131.8,59.222,1,1.0,0,1.0,0,1.0,0,1.0,0,1.0
2459,'1',10.400881,-2.3282411,11.198,-2.442,1.0526271,0,22.0,0.0,1.0,0.0,0.0,1.0,1,1.0,22.0,7.414,1,1.0,0,1.0,0,1.0,0,1.0,0,1.0
2459,'2',22.0,-2.3282411,11.198,-2.442,1.0526271,0,22.0,0.0,1.0,0.0,0.0,1.0,1,1.0,22.0,4.504,1,1.0,0,1.0,0,1.0,0,1.0,0,1.0
2459,'3',22.0,-2.3282411,11.198,-2.442,1.0526271,0,22.0,0.0,1.0,0.0,0.0,1.0,1,1.0,22.0,9.955,1,1.0,0,1.0,0,1.0,0,1.0,0,1.0
2464,'1',96.683,16.385645,49.212,-10.732,1.054,0,96.68,0.0,1.0,0.0,0.0,1.0,1,1.0,96.683,27.432,1,1.0,0,1.0,0,1.0,0,1.0,0,1.0
2465,'1',96.683,12.117228,49.212,-10.732,1.054,0,96.68,0.0,1.0,0.0,0.0,1.0,1,1.0,96.683,28.207,1,1.0,0,1.0,0,1.0,0,1.0,0,1.0
2466,'1',96.683,10.500958,49.212,-10.732,1.054,0,96.68,0.0,1.0,0.0,0.0,1.0,1,1.0,96.683,30.797,1,1.0,0,1.0,0,1.0,0,1.0,0,1.0
2467,'1',96.683,12.663206,49.212,-10.732,1.054,0,96.68,0.0,1.0,0.0,0.0,1.0,1,1.0,96.683,30.344,1,1.0,0,1.0,0,1.0,0,1.0,0,1.0
2468,'1',96.683,22.641611,49.212,-10.732,1.054,0,96.68,0.0,1.0,0.0,0.0,1.0,1,1.0,96.683,32.937,1,1.0,0,1.0,0,1.0,0,1.0,0,1.0
2469,'1',96.683,16.246841,49.212,-10.732,1.054,0,96.68,0.0,1.0,0.0,0.0,1.0,1,1.0,96.683,43.072,1,1.0,0,1.0,0,1.0,0,1.0,0,1.0
2473,'1',76.15,36.848206,38.76,-8.453,1.045,0,76.15,0.0,1.0,0.0,0.0,1.0,1,1.0,76.15,12.006,1,1.0,0,1.0,0,1.0,0,1.0,0,1.0
2473,'2',76.15,36.848206,38.76,-8.453,1.045,0,76.15,0.0,1.0,0.0,0.0,1.0,1,1.0,76.15,22.291,1,1.0,0,1.0,0,1.0,0,1.0,0,1.0
2473,'3',76.15,36.848206,38.76,-8.453,1.045,0,76.15,0.0,1.0,0.0,0.0,1.0,1,1.0,76.15,36.024,1,1.0,0,1.0,0,1.0,0,1.0,0,1.0
2473,'4',76.15,36.848206,38.76,-8.453,1.045,0,76.15,0.0,1.0,0.0,0.0,1.0,1,1.0,76.15,10.342,1,1.0,0,1.0,0,1.0,0,1.0,0,1.0
2477,'1',38.0,9.6816237,19.342,-4.218,1.0425,0,38.0,0.0,1.0,0.0,0.0,1.0,1,1.0,38.0,10.706,1,1.0,0,1.0,0,1.0,0,1.0,0,1.0
2481,'1',170.2,-2.0794819,36.253,-24.509,1.045,0,170.2,0.0,1.0,0.0,0.0,1.0,1,1.0,170.2,59.987,1,1.0,0,1.0,0,1.0,0,1.0,0,1.0
2486,'1',101.015,82.141,114.627,-24.997,1.0276543,0,225.2,0.0,1.0,0.0,0.0,1.0,0,1.0,225.2,101.015,1,1.0,0,1.0,0,1.0,0,1.0,0,1.0
2487,'1',84.723,104.964,114.627,-24.997,1.0276543,0,225.2,0.0,1.0,0.0,0.0,1.0,0,1.0,225.2,67.765,1,1.0,0,1.0,0,1.0,0,1.0,0,1.0
2488,'1',80.164,108.84,114.627,-24.997,1.0276543,0,225.2,0.0,1.0,0.0,0.0,1.0,0,1.0,225.2,80.164,1,1.0,0,1.0,0,1.0,0,1.0,0,1.0
2493,'1',150.0,12.343869,31.95,-21.6,1.0445,0,150.0,0.0,1.0,0.0,0.0,1.0,1,1.0,150.0,53.398,1,1.0,0,1.0,0,1.0,0,1.0,0,1.0
2499,'1',180.0,-24.228073,38.34,-25.92,1.0418629,0,180.0,0.0,1.0,0.0,0.0,1.0,1,1.0,180.0,54.851,1,1.0,0,1.0,0,1.0,0,1.0,0,1.0
2500,'1',9.0,1.917,1.917,-1.296,1.0348627,0,9.0,0.0,1.0,0.0,0.0,1.0,1,1.0,9.0,2.266,1,1.0,0,1.0,0,1.0,0,1.0,0,1.0
2506,'1',161.4,32.931196,82.153,-17.915,1.047,0,161.4,0.0,1.0,0.0,0.0,1.0,1,1.0,161.4,78.585,1,1.0,0,1.0,0,1.0,0,1.0,0,1.0
2507,'1',140.01381,22.268006,82.153,-17.915,1.047,0,161.4,0.0,1.0,0.0,0.0,1.0,1,1.0,161.4,52.405,1,1.0,0,1.0,0,1.0,0,1.0,0,1.0
2508,'1',144.28081,44.722558,82.153,-17.915,1.0515,0,161.4,0.0,1.0,0.0,0.0,1.0,1,1.0,161.4,51.825,1,1.0,0,1.0,0,1.0,0,1.0,0,1.0
2509,'1',153.76081,29.151422,82.153,-17.915,1.047,0,161.4,0.0,1.0,0.0,0.0,1.0,1,1.0,161.4,60.739,1,1.0,0,1.0,0,1.0,0,1.0,0,1.0
2510,'1',147.86681,22.96087,82.153,-17.915,1.047,0,161.4,0.0,1.0,0.0,0.0,1.0,1,1.0,161.4,74.24,1,1.0,0,1.0,0,1.0,0,1.0,0,1.0
2515,'1',100.441,17.508,104.973,-22.892,1.0464879,0,206.23,0.0,1.0,0.0,0.0,1.0,0,1.0,206.233,100.441,1,1.0,0,1.0,0,1.0,0,1.0,0,1.0
2516,'1',91.5282,23.381407,104.973,-22.892,1.054,0,206.23,0.0,1.0,0.0,0.0,1.0,1,1.0,206.233,90.875,1,1.0,0,1.0,0,1.0,0,1.0,0,1.0
2517,'1',202.36787,31.70146,104.973,-22.892,1.054,0,206.23,0.0,1.0,0.0,0.0,1.0,1,1.0,206.233,96.392,1,1.0,0,1.0,0,1.0,0,1.0,0,1.0
2521,'1',67.6,6.3047403,14.399,-9.734,1.054,0,67.6,0.0,1.0,0.0,0.0,1.0,1,1.0,67.6,10.419,1,1.0,0,1.0,0,1.0,0,1.0,0,1.0
2526,'1',151.20844,5.5209005,78.895,-17.205,1.045,0,155.0,0.0,1.0,0.0,0.0,1.0,1,1.0,155.0,50.297,1,1.0,0,1.0,0,1.0,0,1.0,0,1.0
2527,'1',117.65444,2.2127621,78.895,-17.205,1.045,0,155.0,0.0,1.0,0.0,0.0,1.0,1,1.0,155.0,20.217,1,1.0,0,1.0,0,1.0,0,1.0,0,1.0
2531,'1',30.0,0.0,0.0,0.0,1.0537368,0,30.0,0.0,1.0,0.0,0.0,1.0,1,1.0,30.0,3.39,1,1.0,0,1.0,0,1.0,0,1.0,0,1.0
2531,'2',1.4,0.0,0.0,0.0,1.0537368,0,1.4,0.0,1.0,0.0,0.0,1.0,1,1.0,1.4,0.549,1,1.0,0,1.0,0,1.0,0,1.0,0,1.0
2536,'1',59.0,23.348017,30.031,-6.549,1.065,0,59.0,0.0,1.0,0.0,0.0,1.0,1,1.0,59.0,24.736,1,1.0,0,1.0,0,1.0,0,1.0,0,1.0
2537,'1',59.0,15.144021,30.031,-6.549,1.065,0,59.0,0.0,1.0,0.0,0.0,1.0,1,1.0,59.0,12.681,1,1.0,0,1.0,0,1.0,0,1.0,0,1.0
2538,'1',59.0,15.26199,30.031,-6.549,1.065,0,59.0,0.0,1.0,0.0,0.0,1.0,1,1.0,59.0,17.743,1,1.0,0,1.0,0,1.0,0,1.0,0,1.0
2539,'1',59.0,20.405897,30.031,-6.549,1.065,0,59.0,0.0,1.0,0.0,0.0,1.0,1,1.0,59.0,26.511,1,1.0,0,1.0,0,1.0,0,1.0,0,1.0
2544,'1',67.075,0.0,81.364,-21.301,1.0402583,0,174.6,0.0,1.0,0.0,0.0,1.0,0,1.0,174.6,67.075,1,1.0,0,1.0,0,1.0,0,1.0,0,1.0
2545,'1',42.259,0.0,81.364,-21.301,1.0402583,0,174.6,0.0,1.0,0.0,0.0,1.0,0,1.0,174.6,42.259,1,1.0,0,1.0,0,1.0,0,1.0,0,1.0
2548,'1',10.777169,-3.097,14.201,-3.097,1.0486598,0,27.9,0.0,1.0,0.0,0.0,1.0,1,1.0,27.9,6.386,1,1.0,0,1.0,0,1.0,0,1.0,0,1.0
2549,'1',8.4691687,-3.097,14.201,-3.097,1.0517093,0,27.9,0.0,1.0,0.0,0.0,1.0,1,1.0,27.9,3.501,1,1.0,0,1.0,0,1.0,0,1.0,0,1.0
2549,'2',16.207569,-3.097,14.201,-3.097,1.0517093,0,27.9,0.0,1.0,0.0,0.0,1.0,1,1.0,27.9,13.174,1,1.0,0,1.0,0,1.0,0,1.0,0,1.0
2549,'3',13.267569,-3.097,14.201,-3.097,1.0517093,0,27.9,0.0,1.0,0.0,0.0,1.0,1,1.0,27.9,9.499,1,1.0,0,1.0,0,1.0,0,1.0,0,1.0
2549,'4',14.885169,-3.097,14.201,-3.097,1.0517093,0,27.9,0.0,1.0,0.0,0.0,1.0,1,1.0,27.9,11.521,1,1.0,0,1.0,0,1.0,0,1.0,0,1.0
2549,'5',14.077169,-3.097,14.201,-3.097,1.0517093,0,27.9,0.0,1.0,0.0,0.0,1.0,1,1.0,27.9,10.511,1,1.0,0,1.0,0,1.0,0,1.0,0,1.0
2554,'1',91.357356,15.622932,67.137,-14.641,1.0585,0,131.9,0.0,1.0,0.0,0.0,1.0,1,1.0,131.9,46.727,1,1.0,0,1.0,0,1.0,0,1.0,0,1.0
2555,'1',121.45507,24.883495,67.137,-14.641,1.0585,0,131.9,0.0,1.0,0.0,0.0,1.0,1,1.0,131.9,65.353,1,1.0,0,1.0,0,1.0,0,1.0,0,1.0
2556,'1',65.613356,17.687972,67.137,-14.641,1.0585,0,131.9,0.0,1.0,0.0,0.0,1.0,1,1.0,131.9,27.798,1,1.0,0,1.0,0,1.0,0,1.0,0,1.0
2557,'1',49.039772,18.243021,67.137,-14.641,1.0585,0,131.9,0.0,1.0,0.0,0.0,1.0,1,1.0,131.9,32.76,1,1.0,0,1.0,0,1.0,0,1.0,0,1.0
2563,'1',542.749,441.919,447.12,-99.63,0.9754386,0,1215.0,0.0,1.0,0.0,0.0,1.0,0,1.0,1215.0,542.749,1,1.0,0,1.0,0,1.0,0,1.0,0,1.0
2564,'1',457.1,447.12,447.12,-99.63,0.9754386,0,1215.0,0.0,1.0,0.0,0.0,1.0,0,1.0,1215.0,196.854,1,1.0,0,1.0,0,1.0,0,1.0,0,1.0
2567,'1',72.0,-7.992,36.648,-7.992,1.0373361,0,72.0,0.0,1.0,0.0,0.0,1.0,1,1.0,72.0,24.623,1,1.0,0,1.0,0,1.0,0,1.0,0,1.0
2567,'2',72.0,-7.992,36.648,-7.992,1.0373361,0,72.0,0.0,1.0,0.0,0.0,1.0,1,1.0,72.0,32.496,1,1.0,0,1.0,0,1.0,0,1.0,0,1.0
2567,'3',72.0,-7.992,36.648,-7.992,1.0373361,0,72.0,0.0,1.0,0.0,0.0,1.0,1,1.0,72.0,8.594,1,1.0,0,1.0,0,1.0,0,1.0,0,1.0
2567,'4',72.0,-7.992,36.648,-7.992,1.0373361,0,72.0,0.0,1.0,0.0,0.0,1.0,1,1.0,72.0,20.906,1,1.0,0,1.0,0,1.0,0,1.0,0,1.0
2567,'5',72.0,-7.992,36.648,-7.992,1.0373361,0,72.0,0.0,1.0,0.0,0.0,1.0,1,1.0,72.0,30.986,1,1.0,0,1.0,0,1.0,0,1.0,0,1.0
2567,'6',72.0,-7.992,36.648,-7.992,1.0373361,0,72.0,0.0,1.0,0.0,0.0,1.0,1,1.0,72.0,20.543,1,1.0,0,1.0,0,1.0,0,1.0,0,1.0
2573,'1',250.85969,-24.423603,59.214,-40.032,1.036,0,278.0,0.0,1.0,0.0,0.0,1.0,1,1.0,278.0,124.493,1,1.0,0,1.0,0,1.0,0,1.0,0,1.0
2578,'1',150.0,-21.589824,31.95,-21.6,1.040166,0,150.0,0.0,1.0,0.0,0.0,1.0,1,1.0,150.0,35.937,1,1.0,0,1.0,0,1.0,0,1.0,0,1.0
2583,'1',162.58,59.105,165.527,-36.097,1.0385,0,325.2,0.0,1.0,0.0,0.0,1.0,0,1.0,325.2,162.58,1,1.0,0,1.0,0,1.0,0,1.0,0,1.0
2584,'1',66.433,76.659,165.527,-36.097,1.0385,0,325.2,0.0,1.0,0.0,0.0,1.0,0,1.0,325.2,66.433,1,1.0,0,1.0,0,1.0,0,1.0,0,1.0
2588,'1',92.625206,-18.356048,49.523,-33.48,1.04,0,232.5,0.0,1.0,0.0,0.0,1.0,1,1.0,232.5,56.736,1,1.0,0,1.0,0,1.0,0,1.0,0,1.0
2591,'1',36.514171,-11.592,17.146,-11.592,1.0466103,0,80.5,0.0,1.0,0.0,0.0,1.0,1,1.0,80.5,25.199,1,1.0,0,1.0,0,1.0,0,1.0,0,1.0
2594,'1',79.6,0.78407229,16.955,-11.462,1.055325,0,79.6,0.0,1.0,0.0,0.0,1.0,1,1.0,79.6,29.942,1,1.0,0,1.0,0,1.0,0,1.0,0,1.0
2598,'1',9.4725386,-2.248,10.307,-2.248,1.0494219,0,20.25,0.0,1.0,0.0,0.0,1.0,1,1.0,20.25,6.698,1,1.0,0,1.0,0,1.0,0,1.0,0,1.0
2598,'2',7.4445386,-2.248,10.307,-2.248,1.0494219,0,20.25,0.0,1.0,0.0,0.0,1.0,1,1.0,20.25,4.163,1,1.0,0,1.0,0,1.0,0,1.0,0,1.0
2604,'1',100.89427,15.040206,42.6,-28.8,1.048,0,200.0,0.0,1.0,0.0,0.0,1.0,1,1.0,200.0,75.326,1,1.0,0,1.0,0,1.0,0,1.0,0,1.0
2611,'1',111.827,47.81,199.426,-43.49,0.98772126,0,391.8,0.0,1.0,0.0,0.0,1.0,0,1.0,391.8,111.827,1,1.0,0,1.0,0,1.0,0,1.0,0,1.0
2612,'1',188.945,66.451,199.426,-43.49,0.98194511,0,391.8,0.0,1.0,0.0,0.0,1.0,0,1.0,391.8,188.945,1,1.0,0,1.0,0,1.0,0,1.0,0,1.0
2613,'1',101.235,54.641,199.426,-43.49,0.98772126,0,391.8,0.0,1.0,0.0,0.0,1.0,0,1.0,391.8,101.235,1,1.0,0,1.0,0,1.0,0,1.0,0,1.0
2617,'1',2.4456814,-1.0342307,8.448,-1.078,1.0547874,0,22.0,0.0,1.0,0.0,0.0,1.0,1,1.0,22.0,2.376,1,1.0,0,1.0,0,1.0,0,1.0,0,1.0
2617,'2',6.5566814,-1.0342307,8.448,-1.078,1.0547874,0,22.0,0.0,1.0,0.0,0.0,1.0,1,1.0,22.0,6.487,1,1.0,0,1.0,0,1.0,0,1.0,0,1.0
2623,'1',227.696,0.0,307.56,-80.52,1.0431349,0,660.0,0.0,1.0,0.0,0.0,1.0,0,1.0,660.0,227.696,1,1.0,0,1.0,0,1.0,0,1.0,0,1.0
2624,'1',113.593,0.0,307.56,-80.52,1.0431349,0,660.0,0.0,1.0,0.0,0.0,1.0,0,1.0,660.0,113.593,1,1.0,0,1.0,0,1.0,0,1.0,0,1.0
2625,'1',177.006,0.0,307.56,-80.52,1.0431349,0,660.0,0.0,1.0,0.0,0.0,1.0,0,1.0,660.0,177.006,1,1.0,0,1.0,0,1.0,0,1.0,0,1.0
2630,'1',235.46132,-31.689039,61.472,-41.558,1.0405,0,288.6,0.0,1.0,0.0,0.0,1.0,1,1.0,288.6,123.187,1,1.0,0,1.0,0,1.0,0,1.0,0,1.0
2635,'1',123.15773,39.367431,51.333,-34.704,1.058,0,241.0,0.0,1.0,0.0,0.0,1.0,1,1.0,241.0,92.743,1,1.0,0,1.0,0,1.0,0,1.0,0,1.0
2638,'1',58.8,-8.467,12.524,-8.467,1.0480684,0,58.8,0.0,1.0,0.0,0.0,1.0,1,1.0,58.8,7.225,1,1.0,0,1.0,0,1.0,0,1.0,0,1.0
2644,'1',52.080806,35.031334,35.278,-23.85,1.0089515,0,165.63,0.0,1.0,0.0,0.0,1.0,1,1.0,165.625,23.039,1,1.0,0,1.0,0,1.0,0,1.0,0,1.0
2645,'1',80.661606,35.226481,35.278,-23.85,1.0059089,0,165.63,0.0,1.0,0.0,0.0,1.0,1,1.0,165.625,58.765,1,1.0,0,1.0,0,1.0,0,1.0,0,1.0
2646,'1',69.438406,35.160164,35.278,-23.85,1.0053715,0,165.63,0.0,1.0,0.0,0.0,1.0,1,1.0,165.625,44.736,1,1.0,0,1.0,0,1.0,0,1.0,0,1.0
2647,'1',48.853606,-11.154811,35.278,-23.85,1.04,0,165.63,0.0,1.0,0.0,0.0,1.0,1,1.0,165.625,19.005,1,1.0,0,1.0,0,1.0,0,1.0,0,1.0
2651,'1',62.882168,-17.564,80.541,-17.564,1.0412925,0,158.23,0.0,1.0,0.0,0.0,1.0,1,1.0,158.233,38.418,1,1.0,0,1.0,0,1.0,0,1.0,0,1.0
2652,'1',85.540568,-17.564,80.541,-17.564,1.0465662,0,158.23,0.0,1.0,0.0,0.0,1.0,1,1.0,158.233,66.741,1,1.0,0,1.0,0,1.0,0,1.0,0,1.0
2653,'1',51.825368,-17.564,80.541,-17.564,1.0405,0,158.23,0.0,1.0,0.0,0.0,1.0,1,1.0,158.233,24.597,1,1.0,0,1.0,0,1.0,0,1.0,0,1.0
2657,'1',66.235868,-18.216,26.945,-18.216,1.0306563,0,126.5,0.0,1.0,0.0,0.0,1.0,1,1.0,126.5,50.669,1,1.0,0,1.0,0,1.0,0,1.0,0,1.0
2662,'1',117.11837,-12.266454,41.961,-28.368,1.0405,0,197.0,0.0,1.0,0.0,0.0,1.0,1,1.0,197.0,96.368,1,1.0,0,1.0,0,1.0,0,1.0,0,1.0
2665,'1',53.814472,-11.261,16.657,-11.261,1.0636502,0,78.2,0.0,1.0,0.0,0.0,1.0,1,1.0,78.2,27.384,1,1.0,0,1.0,0,1.0,0,1.0,0,1.0
2669,'1',86.732062,16.753822,93.537,-20.398,1.0585,0,183.77,0.0,1.0,0.0,0.0,1.0,1,1.0,183.767,86.15,1,1.0,0,1.0,0,1.0,0,1.0,0,1.0
2670,'1',108.29202,33.493427,93.537,-20.398,1.0585,0,183.77,0.0,1.0,0.0,0.0,1.0,1,1.0,183.767,72.086,1,1.0,0,1.0,0,1.0,0,1.0,0,1.0
2671,'1',67.204021,21.689544,93.537,-20.398,1.0585,0,183.77,0.0,1.0,0.0,0.0,1.0,1,1.0,183.767,21.216,1,1.0,0,1.0,0,1.0,0,1.0,0,1.0
2677,'1',117.92457,30.049694,94.844,-20.683,1.0525,0,186.33,0.0,1.0,0.0,0.0,1.0,1,1.0,186.333,29.779,1,1.0,0,1.0,0,1.0,0,1.0,0,1.0
2678,'1',124.05457,39.24699,94.844,-20.683,1.0525,0,186.33,0.0,1.0,0.0,0.0,1.0,1,1.0,186.333,88.281,1,1.0,0,1.0,0,1.0,0,1.0,0,1.0
2679,'1',135.37057,43.695808,94.844,-20.683,1.0525,0,186.33,0.0,1.0,0.0,0.0,1.0,1,1.0,186.333,69.424,1,1.0,0,1.0,0,1.0,0,1.0,0,1.0
2683,'1',283.2,-40.781,60.322,-40.781,1.0336407,0,283.2,0.0,1.0,0.0,0.0,1.0,1,1.0,283.2,79.964,1,1.0,0,1.0,0,1.0,0,1.0,0,1.0
2688,'1',203.0,24.717735,43.239,-29.232,1.0045,0,203.0,0.0,1.0,0.0,0.0,1.0,1,1.0,203.0,98.9,1,1.0,0,1.0,0,1.0,0,1.0,0,1.0
2691,'1',43.0,15.258053,21.887,-4.773,1.0385,0,43.0,0.0,1.0,0.0,0.0,1.0,1,1.0,43.0,5.001,1,1.0,0,1.0,0,1.0,0,1.0,0,1.0
2692,'1',25.921796,-3.4082725,21.887,-4.773,1.042,0,43.0,0.0,1.0,0.0,0.0,1.0,1,1.0,43.0,21.482,1,1.0,0,1.0,0,1.0,0,1.0,0,1.0
...
0 / END OF GENERATOR DATA BEGIN BRANCH DATA
1,10,'1',0.0087,0.04508,0.03012,161.0,161.0,161.0,0.0,0.0,0.0,0.0,1,1,0.0,1,1.0,0,1.0,0,1.0,0,1.0
2,5,'1',0.04168,0.15499,0.06378,172.6,172.6,172.6,0.0,0.0,0.0,0.0,1,1,0.0,1,1.0,0,1.0,0,1.0,0,1.0
2,2971,'1',0.0113,0.0609,0.01935,179.1,179.1,179.1,0.0,0.0,0.0,0.0,1,1,0.0,1,1.0,0,1.0,0,1.0,0,1.0
3,32,'1',0.02285,0.1258,0.02312,129.8,129.8,129.8,0.0,0.0,0.0,0.0,1,1,0.0,1,1.0,0,1.0,0,1.0,0,1.0
4,5,'1',0.00021,0.0011,0.0,99999.0,99999.0,99999.0,0.0,0.0,0.0,0.0,1,1,0.0,1,1.0,0,1.0,0,1.0,0,1.0
5,47,'1',0.01779,0.09175,0.1489,168.8,168.8,168.8,0.0,0.0,0.0,0.0,1,1,0.0,1,1.0,0,1.0,0,1.0,0,1.0
6,7,'1',0.01146,0.06161,0.01521,118.9,118.9,118.9,0.0,0.0,0.0,0.0,1,1,0.0,1,1.0,0,1.0,0,1.0,0,1.0
6,3839,'1',0.06146,0.23913,0.02814,132.4,132.4,132.4,0.0,0.0,0.0,0.0,1,1,0.0,1,1.0,0,1.0,0,1.0,0,1.0
7,3142,'1',0.01943,0.08611,0.03098,154.4,154.4,154.4,0.0,0.0,0.0,0.0,1,1,0.0,1,1.0,0,1.0,0,1.0,0,1.0
8,9,'1',0.04045,0.19503,0.02577,143.7,143.7,143.7,0.0,0.0,0.0,0.0,1,1,0.0,1,1.0,0,1.0,0,1.0,0,1.0
8,34,'1',0.03445,0.15102,0.02567,125.9,125.9,125.9,0.0,0.0,0.0,0.0,1,1,0.0,1,1.0,0,1.0,0,1.0,0,1.0
8,2798,'1',0.03757,0.171,0.015,165.0,165.0,165.0,0.0,0.0,0.0,0.0,1,1,0.0,1,1.0,0,1.0,0,1.0,0,1.0
10,11,'1',0.03459,0.13093,0.02825,179.5,179.5,179.5,0.0,0.0,0.0,0.0,1,1,0.0,1,1.0,0,1.0,0,1.0,0,1.0
12,14,'1',0.00024,0.00103,0.0,99999.0,99999.0,99999.0,0.0,0.0,0.0,0.0,1,1,0.0,1,1.0,0,1.0,0,1.0,0,1.0
12,15,'1',0.00028,0.00118,0.0,99999.0,99999.0,99999.0,0.0,0.0,0.0,0.0,1,1,0.0,1,1.0,0,1.0,0,1.0,0,1.0
13,11,'1',0.0115,0.05155,0.00995,186.6,186.6,186.6,0.0,0.0,0.0,0.0,1,1,0.0,1,1.0,0,1.0,0,1.0,0,1.0
13,25,'1',0.03053,0.12823,0.03996,170.2,170.2,170.2,0.0,0.0,0.0,0.0,1,1,0.0,1,1.0,0,1.0,0,1.0,0,1.0
15,2405,'1',0.00382,0.03136,0.07527,564.4,564.4,564.4,0.0,0.0,0.0,0.0,1,1,0.0,1,1.0,0,1.0,0,1.0,0,1.0
15,3118,'1',0.00577,0.05823,0.28363,602.8,602.8,602.8,0.0,0.0,0.0,0.0,1,1,0.0,1,1.0,0,1.0,0,1.0,0,1.0
16,18,'1',0.00029,0.00105,0.0,99999.0,99999.0,99999.0,0.0,0.0,0.0,0.0,1,1,0.0,1,1.0,0,1.0,0,1.0,0,1.0
16,19,'1',0.00021,0.00106,0.0,99999.0,99999.0,99999.0,0.0,0.0,0.0,0.0,1,1,0.0,1,1.0,0,1.0,0,1.0,0,1.0
17,70,'1',0.02482,0.12658,0.04798,148.2,148.2,148.2,0.0,0.0,0.0,0.0,1,1,0.0,1,1.0,0,1.0,0,1.0,0,1.0
19,3259,'1',0.01233,0.10016,0.25445,532.2,532.2,532.2,0.0,0.0,0.0,0.0,1,1,0.0,1,1.0,0,1.0,0,1.0,0,1.0
20,22,'1',0.00021,0.00114,0.0,99999.0,99999.0,99999.0,0.0,0.0,0.0,0.0,1,1,0.0,1,1.0,0,1.0,0,1.0,0,1.0
20,23,'1',0.00028,0.00106,0.0,99999.0,99999.0,99999.0,0.0,0.0,0.0,0.0,1,1,0.0,1,1.0,0,1.0,0,1.0,0,1.0
21,9,'1',0.0449,0.16501,0.01666,108.5,108.5,108.5,0.0,0.0,0.0,0.0,1,1,0.0,1,1.0,0,1.0,0,1.0,0,1.0
22,3615,'1',0.00793,0.06747,0.23868,597.9,597.9,597.9,0.0,0.0,0.0,0.0,1,1,0.0,1,1.0,0,1.0,0,1.0,0,1.0
24,32,'1',0.01064,0.03316,0.00869,147.4,147.4,147.4,0.0,0.0,0.0,0.0,1,1,0.0,1,1.0,0,1.0,0,1.0,0,1.0
25,24,'1',0.00921,0.03545,0.00947,146.1,146.1,146.1,0.0,0.0,0.0,0.0,1,1,0.0,1,1.0,0,1.0,0,1.0,0,1.0
25,43,'1',0.00594,0.0302,0.03786,175.1,175.1,175.1,0.0,0.0,0.0,0.0,1,1,0.0,1,1.0,0,1.0,0,1.0,0,1.0
26,2572,'1',0.0208,0.09668,0.02411,135.6,135.6,135.6,0.0,0.0,0.0,0.0,1,1,0.0,1,1.0,0,1.0,0,1.0,0,1.0
26,3467,'1',0.05134,0.25172,0.03633,160.0,160.0,160.0,0.0,0.0,0.0,0.0,1,1,0.0,1,1.0,0,1.0,0,1.0,0,1.0
27,30,'1',0.00029,0.00101,0.0,99999.0,99999.0,99999.0,0.0,0.0,0.0,0.0,1,1,0.0,1,1.0,0,1.0,0,1.0,0,1.0
27,2585,'1',0.00049,0.00859,1.20744,2730.0,2730.0,2730.0,0.0,0.0,0.0,0.0,1,1,0.0,1,1.0,0,1.0,0,1.0,0,1.0
27,3124,'1',0.001,0.01944,2.12114,2885.3,2885.3,2885.3,0.0,0.0,0.0,0.0,1,1,0.0,1,1.0,0,1.0,0,1.0,0,1.0
28,31,'1',0.0003,0.00103,0.0,99999.0,99999.0,99999.0,0.0,0.0,0.0,0.0,1,1,0.0,1,1.0,0,1.0,0,1.0,0,1.0
29,3557,'1',0.00452,0.02384,0.01438,170.8,170.8,170.8,0.0,0.0,0.0,0.0,1,1,0.0,1,1.0,0,1.0,0,1.0,0,1.0
31,65,'1',0.00329,0.03121,0.15293,513.4,513.4,513.4,0.0,0.0,0.0,0.0,1,1,0.0,1,1.0,0,1.0,0,1.0,0,1.0
31,2574,'1',0.00652,0.0629,0.18163,513.0,513.0,513.0,0.0,0.0,0.0,0.0,1,1,0.0,1,1.0,0,1.0,0,1.0,0,1.0
31,3567,'1',0.00127,0.01143,0.03245,651.5,651.5,651.5,0.0,0.0,0.0,0.0,1,1,0.0,1,1.0,0,1.0,0,1.0,0,1.0
31,3567,'2',0.00127,0.01143,0.03245,651.5,651.5,651.5,0.0,0.0,0.0,0.0,1,1,0.0,1,1.0,0,1.0,0,1.0,0,1.0
32,33,'1',0.00021,0.00116,0.0,99999.0,99999.0,99999.0,0.0,0.0,0.0,0.0,1,1,0.0,1,1.0,0,1.0,0,1.0,0,1.0
32,2282,'1',0.00716,0.03527,0.01736,178.4,178.4,178.4,0.0,0.0,0.0,0.0,1,1,0.0,1,1.0,0,1.0,0,1.0,0,1.0
34,56,'1',0.03264,0.16102,0.02997,134.9,134.9,134.9,0.0,0.0,0.0,0.0,1,1,0.0,1,1.0,0,1.0,0,1.0,0,1.0
35,36,'1',0.00024,0.00114,0.0,99999.0,99999.0,99999.0,0.0,0.0,0.0,0.0,1,1,0.0,1,1.0,0,1.0,0,1.0,0,1.0
35,62,'1',0.01883,0.10742,0.02725,115.3,115.3,115.3,0.0,0.0,0.0,0.0,1,1,0.0,1,1.0,0,1.0,0,1.0,0,1.0
37,39,'1',0.00025,0.00118,0.0,99999.0,99999.0,99999.0,0.0,0.0,0.0,0.0,1,1,0.0,1,1.0,0,1.0,0,1.0,0,1.0
37,2975,'1',0.00926,0.08957,0.19243,584.8,584.8,584.8,0.0,0.0,0.0,0.0,1,1,0.0,1,1.0,0,1.0,0,1.0,0,1.0
38,35,'1',0.01179,0.04912,0.01005,139.0,139.0,139.0,0.0,0.0,0.0,0.0,1,1,0.0,1,1.0,0,1.0,0,1.0,0,1.0
40,54,'1',0.00717,0.03214,0.01168,183.9,183.9,183.9,0.0,0.0,0.0,0.0,1,1,0.0,1,1.0,0,1.0,0,1.0,0,1.0
41,24,'1',0.00554,0.0269,0.01549,152.7,152.7,152.7,0.0,0.0,0.0,0.0,1,1,0.0,1,1.0,0,1.0,0,1.0,0,1.0
42,40,'1',0.00522,0.01499,0.00686,198.7,198.7,198.7,0.0,0.0,0.0,0.0,1,1,0.0,1,1.0,0,1.0,0,1.0,0,1.0
42,2282,'1',0.01068,0.05861,0.01552,200.1,200.1,200.1,0.0,0.0,0.0,0.0,1,1,0.0,1,1.0,0,1.0,0,1.0,0,1.0
43,41,'1',0.00246,0.01272,0.00586,168.0,168.0,168.0,0.0,0.0,0.0,0.0,1,1,0.0,1,1.0,0,1.0,0,1.0,0,1.0
43,3557,'1',0.00614,0.03023,0.00712,164.6,164.6,164.6,0.0,0.0,0.0,0.0,1,1,0.0,1,1.0,0,1.0,0,1.0,0,1.0
44,29,'1',0.00738,0.02468,0.00717,123.9,123.9,123.9,0.0,0.0,0.0,0.0,1,1,0.0,1,1.0,0,1.0,0,1.0,0,1.0
44,45,'1',0.0055,0.0265,0.0033,145.5,145.5,145.5,0.0,0.0,0.0,0.0,1,1,0.0,1,1.0,0,1.0,0,1.0,0,1.0
45,2282,'1',0.0079,0.04148,0.00396,162.4,162.4,162.4,0.0,0.0,0.0,0.0,1,1,0.0,1,1.0,0,1.0,0,1.0,0,1.0
46,38,'1',0.02563,0.14224,0.01306,169.3,169.3,169.3,0.0,0.0,0.0,0.0,1,1,0.0,1,1.0,0,1.0,0,1.0,0,1.0
48,47,'1',0.00865,0.03468,0.02152,166.3,166.3,166.3,0.0,0.0,0.0,0.0,1,1,0.0,1,1.0,0,1.0,0,1.0,0,1.0
48,71,'1',0.03201,0.12189,0.05261,176.6,176.6,176.6,0.0,0.0,0.0,0.0,1,1,0.0,1,1.0,0,1.0,0,1.0,0,1.0
49,50,'1',0.00022,0.00108,0.0,99999.0,99999.0,99999.0,0.0,0.0,0.0,0.0,1,1,0.0,1,1.0,0,1.0,0,1.0,0,1.0
50,86,'1',0.0328,0.16516,0.09333,116.2,116.2,116.2,0.0,0.0,0.0,0.0,1,1,0.0,1,1.0,0,1.0,0,1.0,0,1.0
51,59,'1',0.01464,0.04673,0.00744,114.8,114.8,114.8,0.0,0.0,0.0,0.0,1,1,0.0,1,1.0,0,1.0,0,1.0,0,1.0
52,53,'1',0.00021,0.00103,0.0,99999.0,99999.0,99999.0,0.0,0.0,0.0,0.0,1,1,0.0,1,1.0,0,1.0,0,1.0,0,1.0
53,54,'1',0.00707,0.03381,0.01158,147.3,147.3,147.3,0.0,0.0,0.0,0.0,1,1,0.0,1,1.0,0,1.0,0,1.0,0,1.0
53,59,'1',0.00623,0.0242,0.00374,121.3,121.3,121.3,0.0,0.0,0.0,0.0,1,1,0.0,1,1.0,0,1.0,0,1.0,0,1.0
54,51,'1',0.01384,0.04606,0.00524,145.7,145.7,145.7,0.0,0.0,0.0,0.0,1,1,0.0,1,1.0,0,1.0,0,1.0,0,1.0
54,55,'1',0.00027,0.00106,0.0,99999.0,99999.0,99999.0,0.0,0.0,0.0,0.0,1,1,0.0,1,1.0,0,1.0,0,1.0,0,1.0
56,46,'1',0.04103,0.16139,0.02102,159.3,159.3,159.3,0.0,0.0,0.0,0.0,1,1,0.0,1,1.0,0,1.0,0,1.0,0,1.0
56,57,'1',0.00022,0.00118,0.0,99999.0,99999.0,99999.0,0.0,0.0,0.0,0.0,1,1,0.0,1,1.0,0,1.0,0,1.0,0,1.0
56,96,'1',0.01994,0.09722,0.00985,136.4,136.4,136.4,0.0,0.0,0.0,0.0,1,1,0.0,1,1.0,0,1.0,0,1.0,0,1.0
58,64,'1',0.015,0.07401,0.00725,134.0,134.0,134.0,0.0,0.0,0.0,0.0,1,1,0.0,1,1.0,0,1.0,0,1.0,0,1.0
59,58,'1',0.00557,0.02601,0.00571,109.3,109.3,109.3,0.0,0.0,0.0,0.0,1,1,0.0,1,1.0,0,1.0,0,1.0,0,1.0
60,61,'1',0.0002,0.00106,0.0,99999.0,99999.0,99999.0,0.0,0.0,0.0,0.0,1,1,0.0,1,1.0,0,1.0,0,1.0,0,1.0
60,67,'1',0.00441,0.02151,0.01126,144.1,144.1,144.1,0.0,0.0,0.0,0.0,1,1,0.0,1,1.0,0,1.0,0,1.0,0,1.0
60,77,'1',0.00675,0.04224,0.01573,169.1,169.1,169.1,0.0,0.0,0.0,0.0,1,1,0.0,1,1.0,0,1.0,0,1.0,0,1.0
62,47,'1',0.0085,0.05417,0.06179,188.6,188.6,188.6,0.0,0.0,0.0,0.0,1,1,0.0,1,1.0,0,1.0,0,1.0,0,1.0
62,85,'1',0.01218,0.06348,0.01115,166.7,166.7,166.7,0.0,0.0,0.0,0.0,1,1,0.0,1,1.0,0,1.0,0,1.0,0,1.0
63,65,'1',0.0003,0.00111,0.0,99999.0,99999.0,99999.0,0.0,0.0,0.0,0.0,1,1,0.0,1,1.0,0,1.0,0,1.0,0,1.0
63,66,'1',0.0003,0.00116,0.0,99999.0,99999.0,99999.0,0.0,0.0,0.0,0.0,1,1,0.0,1,1.0,0,1.0,0,1.0,0,1.0
64,53,'1',0.00517,0.02427,0.00753,154.1,154.1,154.1,0.0,0.0,0.0,0.0,1,1,0.0,1,1.0,0,1.0,0,1.0,0,1.0
64,59,'1',0.00458,0.0236,0.00997,156.3,156.3,156.3,0.0,0.0,0.0,0.0,1,1,0.0,1,1.0,0,1.0,0,1.0,0,1.0
64,67,'1',0.00668,0.0258,0.00494,138.5,138.5,138.5,0.0,0.0,0.0,0.0,1,1,0.0,1,1.0,0,1.0,0,1.0,0,1.0
68,69,'1',0.00026,0.00104,0.0,99999.0,99999.0,99999.0,0.0,0.0,0.0,0.0,1,1,0.0,1,1.0,0,1.0,0,1.0,0,1.0
68,3394,'1',0.00964,0.03811,0.00673,120.4,120.4,120.4,0.0,0.0,0.0,0.0,1,1,0.0,1,1.0,0,1.0,0,1.0,0,1.0
70,68,'1',0.00842,0.04011,0.02742,161.6,161.6,161.6,0.0,0.0,0.0,0.0,1,1,0.0,1,1.0,0,1.0,0,1.0,0,1.0
70,2713,'1',0.01477,0.0596,0.01854,162.4,162.4,162.4,0.0,0.0,0.0,0.0,1,1,0.0,1,1.0,0,1.0,0,1.0,0,1.0
72,74,'1',0.00023,0.00109,0.0,99999.0,99999.0,99999.0,0.0,0.0,0.0,0.0,1,1,0.0,1,1.0,0,1.0,0,1.0,0,1.0
72,75,'1',0.00027,0.00118,0.0,99999.0,99999.0,99999.0,0.0,0.0,0.0,0.0,1,1,0.0,1,1.0,0,1.0,0,1.0,0,1.0
73,71,'1',0.0162,0.0528,0.0087,182.0,182.0,182.0,0.0,0.0,0.0,0.0,1,1,0.0,1,1.0,0,1.0,0,1.0,0,1.0
75,3713,'1',0.00519,0.04788,0.20757,615.4,615.4,615.4,0.0,0.0,0.0,0.0,1,1,0.0,1,1.0,0,1.0,0,1.0,0,1.0
76,58,'1',0.01303,0.04777,0.02234,147.7,147.7,147.7,0.0,0.0,0.0,0.0,1,1,0.0,1,1.0,0,1.0,0,1.0,0,1.0
76,77,'1',0.01118,0.05743,0.0095,160.5,160.5,160.5,0.0,0.0,0.0,0.0,1,1,0.0,1,1.0,0,1.0,0,1.0,0,1.0
77,2282,'1',0.01741,0.07702,0.0321,199.3,199.3,199.3,0.0,0.0,0.0,0.0,1,1,0.0,1,1.0,0,1.0,0,1.0,0,1.0
78,68,'1',0.03304,0.12753,0.01506,148.5,148.5,148.5,0.0,0.0,0.0,0.0,1,1,0.0,1,1.0,0,1.0,0,1.0,0,1.0
78,7121,'1',0.03285,0.1673,0.03843,141.0,141.0,141.0,0.0,0.0,0.0,0.0,1,1,0.0,1,1.0,0,1.0,0,1.0,0,1.0
79,81,'1',0.00029,0.00113,0.0,99999.0,99999.0,99999.0,0.0,0.0,0.0,0.0,1,1,0.0,1,1.0,0,1.0,0,1.0,0,1.0
...